19

C	-0.2968373	-1.893506	0.2228019	
C	-0.2382594	-2.302457	-1.391659	
H	-0.5862916	-2.67334	0.8247315	
H	0.7133451	-1.664213	0.4777515	
H	-0.9522653	-1.152406	0.521306	
H	-0.7862293	-3.125579	-1.67412	
C	-1.067461	-0.8394653	-1.953431	
H	0.7167791	-2.58724	-1.827046	
C	-2.574243	-0.7463027	-1.240819	
H	-0.4620509	-0.03522439	-1.534701	
C	-1.117316	-1.135944	-3.562691	
H	-1.360961	-0.2737262	-4.106372	
H	-0.2531551	-1.359484	-4.07156	
H	-1.972724	-1.70221	-3.808825	
H	-3.108523	0.1547308	-1.066932	
H	-3.222634	-1.172419	-1.937705	
H	-2.794193	-1.236763	-0.3287487	
C	-2.916166	3.842877	2.895131	
N	-3.456228	3.782172	3.916818	
