19

C	-0.4295513	-1.906339	-0.227657	
C	-0.5341027	-1.937151	-1.401608	
H	-0.9144023	-2.875762	0.2362172	
H	0.6646871	-1.686609	0.1523471	
H	-1.032955	-0.9734404	0.1668627	
H	-1.006075	-2.967145	-1.727792	
C	-1.071955	-0.9942338	-1.861678	
H	0.5479231	-1.869899	-1.865004	
C	-2.170016	-0.922004	-1.438488	
H	-0.4537531	0.005377978	-1.768716	
C	-1.141276	-1.148334	-3.028507	
H	-1.188366	-0.09803817	-3.562083	
H	-0.3228503	-1.874707	-3.46737	
H	-2.14607	-1.719688	-3.260851	
H	-2.485664	0.2108431	-1.354418	
H	-2.95047	-1.597978	-2.007688	
H	-2.172354	-1.381742	-0.3528206	
C	-2.934886	3.830817	2.862543	
N	-3.292574	3.790574	3.931572	
