19

C	-0.1122402	-2.007195	0.2200098	
C	-0.2453589	-2.202387	-1.154676	
H	-0.4646643	-2.87554	0.606002	
H	0.7978759	-1.731729	0.6895952	
H	-0.7760491	-1.24769	0.4504499	
H	-1.010299	-2.87684	-1.277621	
C	-1.31542	-1.004111	-2.08346	
H	0.6802034	-2.357802	-1.644315	
C	-2.564396	-0.6735229	-1.390597	
H	-0.5017749	-0.3066079	-1.792594	
C	-1.140741	-1.049644	-3.533565	
H	-1.447126	-0.1079541	-3.844483	
H	-0.1501502	-1.281646	-3.714437	
H	-1.664191	-1.844784	-3.978429	
H	-2.750602	0.3467147	-1.158956	
H	-3.355711	-1.107966	-1.92985	
H	-2.417503	-1.249141	-0.4980741	
C	-2.922339	3.845845	2.931847	
N	-3.505114	3.78034	3.890178	
