19

C	-0.02602682	-2.039595	0.3778338	
C	-0.3400668	-2.136365	-1.190415	
H	-0.2643424	-2.985748	0.8773496	
H	1.053142	-1.833859	0.474191	
H	-0.6651604	-1.338944	0.8847339	
H	-1.013622	-2.973423	-1.411656	
C	-1.290756	-1.059341	-2.079276	
H	0.5200566	-2.068337	-1.876638	
C	-2.592083	-0.7292032	-1.489833	
H	-0.5660896	-0.2883259	-1.74476	
C	-1.164633	-1.04435	-3.536489	
H	-1.458117	-0.07353251	-3.90002	
H	-0.1050396	-1.033215	-3.639157	
H	-1.66645	-1.816694	-4.112303	
H	-2.239495	0.3298159	-1.494292	
H	-3.583312	-0.8203161	-1.852365	
H	-2.644425	-0.9094685	-0.416425	
C	-2.910876	3.84968	2.931484	
N	-3.552545	3.777547	3.893849	
