19

C	-0.05653106	-2.026039	0.2871689	
C	-0.2793384	-2.167333	-1.149222	
H	-0.4364926	-3.063713	0.7337287	
H	0.9876381	-1.754748	0.6170785	
H	-0.8059829	-1.203596	0.6480782	
H	-1.170391	-2.924015	-1.33324	
C	-1.326588	-1.032038	-2.095945	
H	0.6657381	-2.143578	-1.778945	
C	-2.576351	-0.709731	-1.46067	
H	-0.4514745	-0.3297478	-1.833124	
C	-1.169428	-1.040987	-3.527356	
H	-1.473793	0.04775817	-3.819916	
H	-0.003249628	-1.186001	-3.512698	
H	-1.661314	-1.929242	-4.050663	
H	-2.327176	0.4392693	-1.318123	
H	-3.605499	-1.012578	-1.903546	
H	-2.416999	-1.127173	-0.4134129	
C	-2.905041	3.849048	2.913616	
N	-3.53854	3.777839	3.907471	
