19

C	0.002581195	-2.05506	0.4127247	
C	-0.4563425	-2.079819	-1.233805	
H	0.01283763	-3.099066	1.019896	
H	1.108984	-1.845278	0.3507042	
H	-0.4497496	-1.316281	1.190894	
H	-0.7232428	-3.234056	-1.462426	
C	-1.23624	-1.126945	-1.994362	
H	0.5590414	-2.148279	-1.817148	
C	-2.595816	-0.7160915	-1.482109	
H	-0.7114917	-0.1029111	-1.602047	
C	-1.121733	-1.044907	-3.550978	
H	-1.639935	-0.1026064	-4.039518	
H	-0.08772121	-1.000342	-4.118464	
H	-1.7365	-1.81855	-4.159873	
H	-2.55825	0.4842633	-1.700518	
H	-3.55689	-0.7398877	-2.158903	
H	-2.917656	-0.7446061	-0.4156781	
C	-2.911895	3.851504	2.9487	
N	-3.580258	3.776359	3.881643	
