19

C	0.02837163	-2.068997	0.3562528	
C	-0.4492078	-2.134365	-1.181381	
H	0.01883336	-3.041888	0.6684499	
H	1.03602	-1.74519	0.2976379	
H	-0.3490443	-1.321099	1.0105	
H	-0.7521619	-3.119802	-1.357855	
C	-1.249223	-1.119708	-1.925784	
H	0.541611	-2.124919	-1.518158	
C	-2.633274	-0.5979792	-1.523966	
H	-0.790109	-0.1399868	-1.684772	
C	-1.101829	-1.03546	-3.581117	
H	-1.713135	-0.1973002	-3.736556	
H	-0.1604633	-1.151791	-4.086893	
H	-1.628773	-1.932442	-3.810791	
H	-2.884632	0.3774076	-1.614401	
H	-3.134869	-1.167477	-2.355921	
H	-2.908195	-0.9161981	-0.5020604	
C	-2.907591	3.854007	2.956574	
N	-3.613672	3.774601	3.877549	
