19

C	0.03193539	-2.054469	0.2688773	
C	-0.4092647	-2.170461	-1.103485	
H	-0.03948849	-3.200248	0.6202341	
H	1.114369	-1.708059	0.2581164	
H	-0.5515781	-1.315929	0.9411243	
H	-0.948563	-3.224299	-1.33538	
C	-1.254387	-1.068616	-1.919126	
H	0.6264133	-2.107058	-1.658462	
C	-2.647346	-0.5746713	-1.563133	
H	-0.660921	-0.04512442	-1.719943	
C	-1.11506	-1.060696	-3.523117	
H	-1.750069	-0.1095715	-3.735815	
H	-0.04198384	-1.134007	-3.961596	
H	-1.638003	-2.070091	-3.692583	
H	-3.046416	0.5548912	-1.612556	
H	-3.026645	-1.392119	-2.288945	
H	-2.890912	-1.072805	-0.6089878	
C	-2.920392	3.853886	2.983131	
N	-3.62205	3.774961	3.856506	
