19

C	0.03309138	-2.06162	0.3105463	
C	-0.4271311	-2.154088	-1.138562	
H	-0.01560976	-3.159935	0.6256832	
H	1.066151	-1.719587	0.2715014	
H	-0.4456535	-1.28754	0.9895288	
H	-0.8621311	-3.197932	-1.348923	
C	-1.257033	-1.098126	-1.920587	
H	0.5861528	-2.101718	-1.549752	
C	-2.641405	-0.5752946	-1.544486	
H	-0.7348235	-0.08969636	-1.705527	
C	-1.108189	-1.045642	-3.559007	
H	-1.755103	-0.1307395	-3.705701	
H	-0.06156366	-1.162728	-4.051492	
H	-1.6315	-2.017926	-3.725863	
H	-2.975471	0.4539642	-1.596292	
H	-3.049344	-1.323476	-2.351158	
H	-2.898241	-1.009997	-0.5450421	
C	-2.917964	3.853512	2.974991	
N	-3.614642	3.775156	3.862639	
