19

C	0.0183682	-2.06734	0.3897041	
C	-0.4700316	-2.106961	-1.215182	
H	0.04326341	-3.033951	0.7902095	
H	1.070778	-1.772764	0.3203631	
H	-0.3223616	-1.341634	1.064919	
H	-0.6895905	-3.132567	-1.387677	
C	-1.237857	-1.13481	-1.939042	
H	0.5698588	-2.151366	-1.593848	
C	-2.620397	-0.6440474	-1.502572	
H	-0.797122	-0.1424897	-1.652342	
C	-1.098336	-1.033071	-3.583016	
H	-1.689972	-0.1989056	-3.836161	
H	-0.2166464	-1.108561	-4.110839	
H	-1.665733	-1.882107	-3.942701	
H	-2.799221	0.4533908	-1.665022	
H	-3.274259	-0.9824318	-2.317031	
H	-2.918489	-0.8252723	-0.4767569	
C	-2.899879	3.854178	2.941504	
N	-3.610045	3.774321	3.889556	
