19

C	0.0379381	-2.041781	0.2269672	
C	-0.3764494	-2.183095	-1.163252	
H	0.004366047	-2.972847	0.765154	
H	1.032539	-1.717745	0.3493159	
H	-0.7850929	-1.542875	0.7419253	
H	-1.081847	-2.984414	-1.248901	
C	-1.200701	-0.9397399	-1.921968	
H	0.3449498	-2.366869	-1.890081	
C	-2.653536	-0.6337103	-1.601203	
H	-0.4776793	-0.1616294	-1.677867	
C	-1.148262	-1.118299	-3.356706	
H	-1.576495	-0.3396277	-4.006644	
H	-0.08075118	-1.003947	-3.630656	
H	-1.594719	-1.99519	-3.813921	
H	-2.968023	0.3207041	-1.766402	
H	-3.3878	-1.243351	-2.202249	
H	-2.912326	-0.9842872	-0.5745239	
C	-2.89965	3.858101	2.971787	
N	-3.667437	3.771708	3.868701	
