19

C	-0.01478608	-1.994348	0.1538279	
C	-0.4469973	-2.174847	-1.303998	
H	0.205112	-3.116812	0.5249082	
H	0.8412033	-1.26865	0.3366262	
H	-0.8008605	-1.409477	0.7433497	
H	-1.471123	-2.730019	-1.302874	
C	-1.216749	-0.859251	-1.828501	
H	0.3395629	-2.700225	-1.930811	
C	-2.644864	-0.7306503	-1.502458	
H	-0.7605842	0.03814695	-1.32981	
C	-1.006057	-1.180946	-3.368909	
H	-1.647891	-0.3130004	-3.815384	
H	0.0670042	-1.376454	-3.743944	
H	-1.511119	-2.222256	-3.303485	
H	-2.664035	0.3633633	-1.867872	
H	-3.286497	-1.429606	-2.198245	
H	-2.924207	-0.5878765	-0.4316051	
C	-2.900133	3.861596	2.999824	
N	-3.718751	3.769392	3.849284	
