19

C	0.01572122	-2.02899	0.2130027	
C	-0.4126776	-2.175106	-1.313619	
H	0.1160077	-2.943352	0.6620873	
H	0.8490127	-1.41642	0.4561376	
H	-0.7367159	-1.448763	0.6878413	
H	-1.331414	-2.67222	-1.230837	
C	-1.208979	-0.8386344	-1.861981	
H	0.2973585	-2.655721	-1.945402	
C	-2.662942	-0.7528208	-1.55613	
H	-0.489503	-0.1133438	-1.413956	
C	-1.077298	-1.163904	-3.333903	
H	-1.602154	-0.4120323	-3.870274	
H	-0.04888619	-1.269672	-3.589021	
H	-1.497257	-2.127628	-3.573909	
H	-2.690991	0.277043	-1.832743	
H	-3.397889	-1.150923	-2.208293	
H	-2.884279	-0.5744225	-0.5119789	
C	-2.914177	3.858757	3.005759	
N	-3.688408	3.771586	3.842559	
