19

C	0.004202313	-2.013672	0.1888999	
C	-0.427151	-2.178437	-1.32056	
H	0.1602138	-3.036479	0.5902511	
H	0.7993511	-1.342836	0.4087563	
H	-0.7515131	-1.403153	0.7140678	
H	-1.388195	-2.654267	-1.260604	
C	-1.215895	-0.84295	-1.842028	
H	0.2834166	-2.662107	-1.901913	
C	-2.654707	-0.7428401	-1.528162	
H	-0.6299054	-0.05665078	-1.372818	
C	-1.041938	-1.171457	-3.35453	
H	-1.643282	-0.3425481	-3.830073	
H	0.03330997	-1.346962	-3.669023	
H	-1.501361	-2.203038	-3.418777	
H	-2.640441	0.2607822	-1.826913	
H	-3.364024	-1.295183	-2.238637	
H	-2.900371	-0.5522751	-0.4796348	
C	-2.903945	3.860528	2.999331	
N	-3.706178	3.770187	3.848875	
