19

C	-0.08513696	-1.822021	0.0736931	
C	-0.6235541	-2.312991	-1.265158	
H	0.6398296	-2.477873	0.4911523	
H	0.5238118	-0.9690505	-0.0874705	
H	-0.9401274	-1.786131	0.7481114	
H	-1.569054	-2.785904	-1.240889	
C	-1.255509	-0.9512143	-1.932284	
H	-0.1052115	-2.96559	-1.863884	
C	-2.545768	-0.7448909	-1.32647	
H	-0.9400393	0.03349391	-1.556964	
C	-0.8430748	-1.13121	-3.362773	
H	-1.089908	-0.2495331	-3.951913	
H	0.2637958	-1.237129	-3.556639	
H	-1.457555	-2.0136	-3.672577	
H	-2.850625	0.01341883	-1.951424	
H	-3.207364	-1.662144	-1.300212	
H	-2.58307	-0.4809153	-0.2724527	
C	-2.913183	3.868566	3.075835	
N	-3.829166	3.765014	3.794972	
