19

C	-0.06709224	-1.834033	0.09093808	
C	-0.6427647	-2.298256	-1.29151	
H	0.5983853	-2.523113	0.4713176	
H	0.4986556	-0.928412	-0.06348308	
H	-0.8990407	-1.684191	0.8072904	
H	-1.605671	-2.824083	-1.29999	
C	-1.260475	-0.93468	-1.943269	
H	0.04370058	-2.951727	-1.940474	
C	-2.550589	-0.7560167	-1.338144	
H	-0.7555207	0.04401143	-1.479309	
C	-0.8622366	-1.154411	-3.350974	
H	-1.106776	-0.2610064	-3.821389	
H	0.2186203	-1.231491	-3.44245	
H	-1.378047	-2.005363	-3.66794	
H	-2.856147	0.09371466	-1.935888	
H	-3.120313	-1.683343	-1.36631	
H	-2.595738	-0.4395037	-0.2787049	
C	-2.906038	3.868748	3.065686	
N	-3.82635	3.76474	3.802876	
