19

C	-0.1074696	-1.816296	0.04931965	
C	-0.6135927	-2.314999	-1.231279	
H	0.717038	-2.504416	0.5269111	
H	0.5502264	-0.9256029	-0.1005729	
H	-0.9730765	-1.844339	0.7046605	
H	-1.579725	-2.828002	-1.124621	
C	-1.232903	-0.9729009	-1.91744	
H	-0.136959	-3.018179	-1.867026	
C	-2.552626	-0.7458674	-1.311956	
H	-1.038018	0.04535581	-1.650876	
C	-0.825781	-1.109165	-3.376297	
H	-1.095581	-0.2124539	-4.087921	
H	0.262352	-1.263976	-3.64551	
H	-1.497937	-2.011136	-3.703458	
H	-2.946192	0.03882737	-2.006967	
H	-3.278636	-1.612961	-1.265768	
H	-2.544079	-0.4878926	-0.2558465	
C	-2.926697	3.867666	3.091009	
N	-3.826521	3.765905	3.78276	
