19

C	-0.1173154	-1.81727	0.02839656	
C	-0.6196011	-2.310248	-1.198322	
H	0.7251121	-2.511995	0.5211794	
H	0.5206441	-0.8574187	-0.0909519	
H	-0.9968719	-1.844987	0.6969825	
H	-1.586429	-2.915788	-0.9561086	
C	-1.197704	-1.008634	-1.904096	
H	-0.06847998	-3.078495	-1.922637	
C	-2.572622	-0.7495089	-1.302392	
H	-1.038586	0.1255692	-1.727805	
C	-0.8153183	-1.083987	-3.400535	
H	-1.098708	-0.2314491	-4.14591	
H	0.2091528	-1.313272	-3.695099	
H	-1.464308	-1.950771	-3.737016	
H	-3.080096	0.07132012	-2.011228	
H	-3.314708	-1.551234	-1.260876	
H	-2.482881	-0.4496043	-0.2312672	
C	-2.935008	3.867412	3.102658	
N	-3.829157	3.76625	3.773644	
