19

C	-0.04247993	-1.738065	0.1605465	
C	-0.7361394	-2.349637	-1.202942	
H	0.722642	-2.407791	0.4454476	
H	0.3705213	-0.7160288	-0.03904843	
H	-0.7733226	-1.610984	1.005974	
H	-1.463912	-3.247211	-0.9885565	
C	-1.216345	-1.155484	-1.981021	
H	0.272057	-2.73309	-1.696578	
C	-2.618033	-0.7198625	-1.337432	
H	-0.1775082	-0.5397097	-1.565569	
C	-0.8466879	-1.035513	-3.491553	
H	-1.010436	-0.03397414	-3.725722	
H	0.2183913	-1.241779	-3.61097	
H	-1.479842	-1.733422	-3.961425	
H	-3.216531	0.08821896	-1.805309	
H	-3.072494	-1.697731	-1.155347	
H	-2.423042	-0.338455	-0.2826778	
C	-2.943985	3.870831	3.140826	
N	-3.884288	3.764144	3.74653	
