19

C	-0.06246259	-1.708395	0.2133275	
C	-0.6721427	-2.334846	-1.152938	
H	0.918152	-2.319996	0.5242366	
H	0.5989869	-0.8313987	-0.05763299	
H	-0.7320625	-1.67536	1.090066	
H	-1.478029	-3.05564	-1.307873	
C	-1.331779	-1.189381	-2.023317	
H	0.1280307	-2.831786	-1.780622	
C	-2.496823	-0.724482	-1.385947	
H	-0.3794985	-0.8613423	-1.561697	
C	-0.8995434	-1.041247	-3.423584	
H	-0.9801986	0.1399833	-3.611303	
H	0.1729743	-1.163186	-3.607152	
H	-1.585479	-1.578149	-4.214869	
H	-3.112236	-0.05627103	-2.137485	
H	-3.143071	-1.599132	-1.185126	
H	-2.400232	-0.4061381	-0.3434935	
C	-2.921556	3.875594	3.143929	
N	-3.934606	3.760468	3.746645	
