19

C	-0.05693926	-1.706521	0.2065958	
C	-0.6948407	-2.3518	-1.176373	
H	0.8777699	-2.302372	0.4827355	
H	0.5624685	-0.849287	-0.05690969	
H	-0.7180854	-1.679444	1.038934	
H	-1.456388	-3.106213	-1.2617	
C	-1.309921	-1.173637	-2.016324	
H	0.09391263	-2.761013	-1.691119	
C	-2.539265	-0.7145116	-1.367514	
H	-0.1959614	-0.7719182	-1.511467	
C	-0.877721	-1.045952	-3.451996	
H	-0.9540155	0.09971175	-3.604036	
H	0.2144055	-1.135204	-3.613948	
H	-1.58588	-1.655547	-4.134637	
H	-3.108861	-0.04391791	-2.01099	
H	-3.095224	-1.663752	-1.13623	
H	-2.438353	-0.4321072	-0.3452344	
C	-2.928438	3.874069	3.142592	
N	-3.918297	3.761638	3.746862	
