19

C	-0.0328247	-1.781558	0.2346763	
C	-0.5283276	-2.312386	-1.10176	
H	0.5618355	-2.504591	0.6802278	
H	0.528155	-0.8499246	0.2399539	
H	-1.008899	-1.719899	0.7472079	
H	-1.092111	-3.135353	-0.5436476	
C	-1.232645	-1.334251	-1.929738	
H	0.3674959	-2.799016	-1.569175	
C	-2.586189	-0.6701536	-1.535245	
H	-0.7270203	-0.387843	-1.850578	
C	-1.020925	-0.9748986	-3.472209	
H	-0.9729048	0.05625148	-3.441895	
H	-0.0116257	-1.305133	-3.79442	
H	-1.831123	-1.441401	-3.993027	
H	-2.7935	0.1078755	-2.173369	
H	-3.410698	-1.343726	-1.158957	
H	-2.328368	-0.08326053	-0.6061736	
C	-2.942233	3.878858	3.19937	
N	-3.994898	3.758694	3.706079	
