19

C	-0.05266798	-1.749981	0.2673609	
C	-0.4877759	-2.378892	-1.089585	
H	0.6129754	-2.576012	0.7684953	
H	0.7253768	-0.9508229	0.2672272	
H	-0.99007	-1.730953	0.8095219	
H	-1.072646	-3.277991	-0.8902599	
C	-1.25141	-1.272569	-1.891382	
H	0.370752	-2.776389	-1.615916	
C	-2.587989	-0.6603526	-1.543257	
H	-0.7095877	-0.1978272	-2.050332	
C	-1.003228	-1.018952	-3.480186	
H	-0.980841	0.1571648	-3.503964	
H	-0.06767222	-1.204143	-4.026607	
H	-2.033161	-1.452648	-3.795964	
H	-2.880403	0.11211	-2.377984	
H	-3.390772	-1.272174	-1.17961	
H	-2.512375	-0.1631875	-0.5750089	
C	-2.972209	3.876967	3.22551	
N	-3.990265	3.760592	3.685547	
