19

C	-0.02685311	-1.79351	0.2147875	
C	-0.5470964	-2.284184	-1.099601	
H	0.5742103	-2.541155	0.6844538	
H	0.403964	-0.7656255	0.2024859	
H	-1.010424	-1.648017	0.8140873	
H	-1.150497	-3.056315	-0.5007782	
C	-1.240509	-1.356377	-1.959691	
H	0.401792	-2.81815	-1.629386	
C	-2.571343	-0.6898413	-1.512139	
H	-0.6155978	-0.4114401	-1.699276	
C	-1.020667	-0.967394	-3.45091	
H	-1.022501	0.1273137	-3.493575	
H	-0.02192878	-1.390216	-3.674283	
H	-1.746318	-1.423936	-4.145384	
H	-2.826474	0.1672941	-2.18905	
H	-3.400619	-1.371739	-1.220589	
H	-2.239583	-0.05080895	-0.6202273	
C	-2.934973	3.878933	3.190153	
N	-3.990709	3.758492	3.713052	
