19

C	-0.03745497	-1.780572	0.2003756	
C	-0.5571484	-2.277425	-1.100211	
H	0.6408353	-2.582077	0.6997372	
H	0.2552957	-0.7178098	0.1032371	
H	-0.8003693	-1.553461	0.9255058	
H	-1.341882	-2.957126	-0.7342362	
C	-1.290026	-1.341653	-2.030525	
H	0.1871171	-2.738914	-1.670144	
C	-2.519169	-0.7158412	-1.460594	
H	-0.3865165	-0.4862198	-1.419017	
C	-1.004836	-0.9775665	-3.398909	
H	-1.113235	0.1730666	-3.630747	
H	-0.03335831	-1.471031	-3.530765	
H	-1.582131	-1.349615	-4.340964	
H	-2.915094	0.06799232	-2.195144	
H	-3.358653	-1.402376	-1.348604	
H	-2.183152	-0.1278017	-0.6375784	
C	-2.953901	3.875225	3.187942	
N	-3.952983	3.761391	3.713025	
