19

C	-0.05027212	-1.7707	0.295411	
C	-0.4594058	-2.404012	-1.080398	
H	0.467296	-2.528737	0.8066055	
H	0.676415	-0.9587416	0.2096113	
H	-0.9397668	-1.529373	1.013187	
H	-1.146801	-3.346761	-1.234726	
C	-1.254427	-1.200102	-1.881834	
H	0.4831122	-2.712869	-1.779056	
C	-2.577579	-0.6484056	-1.542947	
H	-0.5985605	-0.2572351	-2.06929	
C	-1.005478	-1.038781	-3.450613	
H	-1.152433	0.01802087	-3.751996	
H	-0.1727893	-1.333063	-4.127203	
H	-1.983847	-1.360686	-3.754875	
H	-2.960763	-0.07141646	-2.363902	
H	-3.438951	-1.398122	-1.384144	
H	-2.586266	-0.093829	-0.5516707	
C	-2.957599	3.880213	3.231873	
N	-4.024319	3.75809	3.682017	
