19

C	-0.1154142	-1.882672	0.2368973	
C	-0.4794648	-2.096499	-1.164778	
H	0.1896044	-2.825445	0.8258584	
H	0.8967385	-1.373994	0.3569641	
H	-1.085119	-1.528947	0.7296515	
H	-1.122435	-2.968551	-1.116028	
C	-1.134957	-0.9872943	-1.90679	
H	0.4184262	-2.552638	-1.678982	
C	-2.512007	-0.71585	-1.520885	
H	-0.4908683	-0.2594165	-1.417655	
C	-1.130267	-1.241477	-3.401588	
H	-0.8526847	-0.208525	-3.783014	
H	-0.1172754	-1.666859	-3.604023	
H	-2.07739	-1.884462	-3.661095	
H	-3.033437	-0.03202223	-2.305009	
H	-3.093364	-1.607373	-1.327276	
H	-2.676362	-0.3778296	-0.4672561	
C	-2.976175	3.884459	3.290083	
N	-4.094569	3.755582	3.639803	
