19

C	-0.07569908	-1.855536	0.318054	
C	-0.4652713	-2.335513	-1.12722	
H	0.4280753	-2.624859	1.020354	
H	0.5266766	-0.9553331	0.02570701	
H	-0.7332977	-1.204549	0.9386878	
H	-1.108439	-3.173553	-1.296676	
C	-1.187127	-1.137251	-1.912486	
H	0.4801304	-2.393767	-1.700448	
C	-2.589883	-0.6705467	-1.511362	
H	-0.2590118	-0.3697704	-1.845221	
C	-1.048633	-1.050265	-3.387619	
H	-1.291511	-0.11588	-4.028318	
H	-0.2936586	-1.748611	-3.820173	
H	-2.013889	-1.55195	-3.928573	
H	-3.057887	-0.04436716	-2.404727	
H	-3.147994	-1.57583	-1.618705	
H	-2.646176	0.006469836	-0.6538692	
C	-2.975997	3.880543	3.257829	
N	-4.04179	3.758243	3.662731	
