19

C	-0.1157885	-1.881603	0.2238676	
C	-0.4551135	-2.074142	-1.15593	
H	0.02408009	-2.882944	0.6730697	
H	0.8442677	-1.3904	0.4844928	
H	-1.082309	-1.555926	0.7768538	
H	-1.244112	-2.946944	-1.128387	
C	-1.158725	-0.9615679	-1.900784	
H	0.4330395	-2.610631	-1.777895	
C	-2.498415	-0.7174138	-1.51071	
H	-0.5285055	-0.06113426	-1.416427	
C	-1.112594	-1.281479	-3.397455	
H	-0.895973	-0.2772805	-3.797617	
H	-0.1002902	-1.683158	-3.722733	
H	-2.060992	-1.845176	-3.659695	
H	-3.042964	-0.1086051	-2.226349	
H	-3.162302	-1.633122	-1.369895	
H	-2.601752	-0.3889541	-0.4300669	
C	-2.994885	3.88306	3.301923	
N	-4.088653	3.756914	3.630556	
