19

C	-0.1273618	-1.888484	0.2384877	
C	-0.4017505	-2.070478	-1.169579	
H	-0.2276083	-3.013263	0.410639	
H	0.7175055	-1.367884	0.6861862	
H	-0.9151584	-1.526395	0.8203196	
H	-1.3375	-2.752907	-1.201143	
C	-1.162639	-0.9233607	-1.90829	
H	0.2887143	-2.525842	-1.806597	
C	-2.527715	-0.7285959	-1.451882	
H	-0.6698272	0.1300324	-1.622784	
C	-1.05572	-1.336187	-3.376704	
H	-1.133196	-0.3602358	-3.932793	
H	-0.2202018	-1.822221	-3.853464	
H	-1.968262	-1.745095	-3.738112	
H	-3.128222	-0.09525913	-2.12963	
H	-3.153555	-1.63136	-1.542232	
H	-2.447752	-0.3204304	-0.4692922	
C	-3.010877	3.882664	3.318777	
N	-4.094147	3.757505	3.61782	
