19

C	-0.06987964	-1.822522	0.3165403	
C	-0.4500597	-2.380136	-1.112857	
H	0.4279245	-2.614962	0.9741498	
H	0.5372694	-0.9244866	0.08347468	
H	-0.7163986	-1.297632	0.9708181	
H	-1.097194	-3.187084	-1.328536	
C	-1.213958	-1.150951	-1.896548	
H	0.3799579	-2.478039	-1.69116	
C	-2.585671	-0.6570089	-1.517179	
H	-0.405931	-0.3873047	-1.94902	
C	-1.025505	-1.040924	-3.406098	
H	-1.294777	-0.1182665	-3.978751	
H	-0.2814645	-1.616838	-3.970638	
H	-1.998743	-1.444203	-3.889314	
H	-3.042275	-0.1035714	-2.376565	
H	-3.266507	-1.516964	-1.598799	
H	-2.617045	-0.02517867	-0.6608723	
C	-2.957364	3.881864	3.244171	
N	-4.046679	3.756965	3.673452	
