19

C	-0.1535238	-1.942789	0.3044969	
C	-0.3711379	-2.025106	-1.205749	
H	-0.2215364	-3.006166	0.4939332	
H	0.7936754	-1.555424	0.7198144	
H	-0.9958268	-1.332339	0.811658	
H	-1.334764	-2.666466	-1.348272	
C	-1.116354	-0.8854665	-1.975977	
H	0.523577	-2.491807	-1.878198	
C	-2.629082	-0.7268152	-1.378409	
H	-0.6480501	0.1849764	-2.06788	
C	-1.019843	-1.341691	-3.380093	
H	-1.278564	-0.5341389	-4.055059	
H	-0.2492191	-2.097328	-3.732704	
H	-1.923253	-1.926524	-3.736666	
H	-3.104445	0.08521503	-1.882602	
H	-3.081284	-1.758253	-1.578844	
H	-2.495223	-0.2574635	-0.3676088	
C	-2.995233	3.88685	3.333788	
N	-4.138914	3.75433	3.607748	
