19

C	-0.1324269	-1.902745	0.2557173	
C	-0.39106	-2.069261	-1.183332	
H	-0.2698494	-3.049917	0.3624465	
H	0.7171035	-1.37818	0.7434608	
H	-0.9276137	-1.446204	0.8588311	
H	-1.291398	-2.628185	-1.245282	
C	-1.145151	-0.9042544	-1.922944	
H	0.3008115	-2.491364	-1.827652	
C	-2.560856	-0.73782	-1.420503	
H	-0.7436711	0.08138843	-1.791178	
C	-1.028412	-1.342978	-3.366293	
H	-1.241247	-0.3961209	-4.000465	
H	-0.2603304	-1.931304	-3.859221	
H	-1.992317	-1.781477	-3.797586	
H	-3.17056	-0.004084649	-2.098959	
H	-3.101829	-1.632196	-1.599178	
H	-2.418784	-0.2618626	-0.4466164	
C	-2.99905	3.884746	3.321498	
N	-4.113718	3.755846	3.616327	
