19

C	-0.2105438	-2.022936	0.3149737	
C	-0.3567946	-1.898342	-1.199322	
H	-0.2596593	-2.885435	1.029486	
H	0.885357	-1.794413	0.3955609	
H	-0.9914282	-1.26319	0.773998	
H	-0.8214256	-2.866555	-1.340265	
C	-1.102092	-0.8901228	-2.017671	
H	0.6893119	-2.275975	-1.597202	
C	-2.602228	-0.6798244	-1.354197	
H	-0.5299343	-0.04529145	-1.942405	
C	-1.10172	-1.383435	-3.482555	
H	-0.9629036	-0.6265726	-4.282914	
H	-0.0357144	-1.808032	-3.423698	
H	-1.886032	-2.203464	-3.42639	
H	-3.199503	0.1304246	-1.811486	
H	-3.254918	-1.618978	-1.373801	
H	-2.648003	-0.6933573	-0.2055842	
C	-3.025775	3.886565	3.368548	
N	-4.155052	3.755132	3.581725	
