19

C	-0.1397538	-1.923816	0.2794799	
C	-0.3847148	-2.053229	-1.194213	
H	-0.2621146	-3.038051	0.3872642	
H	0.7504558	-1.444875	0.7556812	
H	-0.9844956	-1.359019	0.8705276	
H	-1.287807	-2.589565	-1.297942	
C	-1.127425	-0.8885174	-1.947748	
H	0.4309724	-2.502507	-1.891499	
C	-2.598761	-0.7373345	-1.39532	
H	-0.741413	0.07787586	-1.958599	
C	-1.015277	-1.341457	-3.365929	
H	-1.296213	-0.4653302	-4.037456	
H	-0.259874	-2.04777	-3.822996	
H	-1.982872	-1.854093	-3.804006	
H	-3.153296	0.06449974	-2.003844	
H	-3.079248	-1.696654	-1.615747	
H	-2.436619	-0.2238507	-0.3959711	
C	-2.989	3.88674	3.325601	
N	-4.133296	3.75428	3.613789	
