19

C	-0.1982176	-2.00107	0.324315	
C	-0.3513895	-1.925331	-1.217338	
H	-0.1961326	-2.958846	0.9724131	
H	0.8928024	-1.790366	0.4791124	
H	-0.9935877	-1.302173	0.7131692	
H	-0.9999934	-2.840673	-1.366118	
C	-1.09301	-0.8891261	-2.022897	
H	0.5696381	-2.332148	-1.593624	
C	-2.62909	-0.6979429	-1.355351	
H	-0.5310699	0.05750297	-2.035561	
C	-1.080026	-1.369313	-3.457357	
H	-1.017893	-0.561198	-4.259196	
H	-0.09598143	-1.89901	-3.431053	
H	-1.887322	-2.170849	-3.437756	
H	-3.187937	0.1940335	-1.829126	
H	-3.166148	-1.626826	-1.358678	
H	-2.660605	-0.6153883	-0.2264181	
C	-3.037954	3.884334	3.363997	
N	-4.134075	3.756907	3.584687	
