19

C	-0.24737	-2.02265	0.2983517	
C	-0.3377729	-1.87891	-1.156685	
H	-0.4369575	-2.850136	0.9822068	
H	0.8240802	-1.763177	0.3401477	
H	-0.7824853	-1.29848	0.8417163	
H	-0.6017028	-3.057186	-1.348936	
C	-1.165581	-0.9108078	-1.984689	
H	0.6949472	-1.973395	-1.612718	
C	-2.538686	-0.6758856	-1.349123	
H	-0.4220247	0.07675332	-1.768062	
C	-1.114838	-1.419214	-3.498023	
H	-1.062275	-0.7190673	-4.318983	
H	-0.09326675	-1.718554	-3.562437	
H	-1.822942	-2.199633	-3.606982	
H	-3.186339	0.08793653	-1.766678	
H	-3.257974	-1.498547	-1.569778	
H	-2.497112	-0.6628219	-0.2977944	
C	-3.020357	3.888843	3.381095	
N	-4.181001	3.75346	3.572871	
