19

C	-0.272319	-1.963208	0.3182484	
C	-0.3243042	-1.922163	-1.160364	
H	-0.6391084	-2.996316	0.5699224	
H	0.8007065	-1.888226	0.6520218	
H	-0.7031788	-1.085849	0.9394317	
H	-0.3495558	-2.905275	-1.540984	
C	-1.224364	-0.9632649	-1.931537	
H	0.6790891	-1.468103	-1.601405	
C	-2.479365	-0.6800593	-1.368742	
H	-0.6956876	-0.05656973	-1.819411	
C	-1.107044	-1.433402	-3.470637	
H	-1.508756	-0.6643354	-4.185328	
H	-0.1100744	-1.894902	-3.811466	
H	-1.771354	-2.251624	-3.877867	
H	-2.904849	0.2843793	-1.678495	
H	-3.11572	-1.520754	-1.841893	
H	-2.283616	-0.5024932	-0.2678788	
C	-3.065618	3.886069	3.409586	
N	-4.174315	3.75626	3.551311	
