19

C	-0.2720803	-1.937342	0.3437043	
C	-0.3203782	-1.920454	-1.177336	
H	-0.6840782	-2.948326	0.430674	
H	0.7706137	-1.998371	0.7688606	
H	-0.7288911	-1.10689	0.8732417	
H	-0.2749847	-2.881908	-1.678565	
C	-1.21147	-1.016207	-1.939182	
H	0.6971545	-1.400825	-1.537374	
C	-2.489263	-0.6661541	-1.365354	
H	-0.7318032	0.005181399	-1.880391	
C	-1.111728	-1.434329	-3.467971	
H	-1.576304	-0.6509469	-4.036085	
H	-0.1734772	-1.86022	-3.822661	
H	-1.732491	-2.223679	-3.814296	
H	-2.774972	0.3193887	-1.66483	
H	-3.111503	-1.529794	-1.816613	
H	-2.309479	-0.5338421	-0.3220643	
C	-3.054267	3.888196	3.415165	
N	-4.194168	3.754568	3.547431	
