19

C	-0.2983416	-1.921928	0.3464275	
C	-0.1706132	-1.889124	-1.199008	
H	-1.062401	-2.716967	0.6154066	
H	0.5943854	-2.244373	0.9305802	
H	-0.9339365	-1.083524	0.7206818	
H	0.07100255	-2.775851	-1.695672	
C	-1.141982	-1.163558	-2.029774	
H	0.869165	-1.385916	-1.29613	
C	-2.520712	-0.6245875	-1.3694	
H	-0.7138884	-0.1784713	-2.094116	
C	-1.198431	-1.417999	-3.419526	
H	-1.581769	-0.4968966	-3.871482	
H	-0.1325272	-1.444654	-3.833158	
H	-1.83979	-2.323342	-3.439095	
H	-2.7199	0.3513272	-1.770734	
H	-3.490036	-1.286532	-1.540417	
H	-2.576904	-0.7462333	-0.274078	
C	-3.089084	3.887204	3.444622	
N	-4.203472	3.755933	3.525671	
