19

C	-0.2690443	-1.985942	0.2992255	
C	-0.3236162	-1.908092	-1.147728	
H	-0.5932186	-2.997734	0.7389709	
H	0.8022332	-1.807893	0.5211086	
H	-0.6921759	-1.135378	0.944829	
H	-0.4216285	-3.006347	-1.450788	
C	-1.220427	-0.9340373	-1.939151	
H	0.6366085	-1.595803	-1.619828	
C	-2.486095	-0.6895851	-1.366156	
H	-0.5899329	-0.0039939	-1.770377	
C	-1.106105	-1.432293	-3.476081	
H	-1.38565	-0.6679087	-4.303644	
H	-0.0872021	-1.856277	-3.759093	
H	-1.81532	-2.273618	-3.858808	
H	-3.044215	0.2471129	-1.716623	
H	-3.127024	-1.466539	-1.790473	
H	-2.311087	-0.5226508	-0.2431228	
C	-3.061573	3.885746	3.402015	
N	-4.167665	3.756403	3.5569	
