19

C	-0.3775929	-1.960748	0.3084645	
C	-0.03684554	-1.868873	-1.153392	
H	-1.154683	-2.579219	0.7621857	
H	0.5348917	-2.142735	0.872057	
H	-0.7235214	-0.9903367	0.678578	
H	0.2753004	-2.953534	-1.550368	
C	-1.167322	-1.166608	-1.995531	
H	0.9566606	-1.363281	-1.311046	
C	-2.520562	-0.6516948	-1.376961	
H	-0.5068325	-0.1572273	-2.087761	
C	-1.247222	-1.41296	-3.439149	
H	-1.709777	-0.5828433	-3.977227	
H	-0.2730372	-1.393	-3.811925	
H	-1.820687	-2.329996	-3.537041	
H	-2.81087	0.3640105	-1.759384	
H	-3.484391	-1.059942	-1.621454	
H	-2.564993	-0.6378499	-0.2921737	
C	-3.08403	3.889382	3.458575	
N	-4.227415	3.754324	3.51546	
