19

C	-0.2626255	-1.909874	0.3676303	
C	-0.2757519	-1.894433	-1.204659	
H	-0.8577222	-2.856237	0.3986725	
H	0.6444839	-2.190594	0.8918687	
H	-0.8950512	-1.095037	0.775363	
H	-0.1067556	-2.87587	-1.849003	
C	-1.161643	-1.124708	-1.98605	
H	0.6787315	-1.407917	-1.360762	
C	-2.520117	-0.6438222	-1.369045	
H	-0.7335636	0.07284882	-2.015059	
C	-1.140902	-1.426172	-3.442051	
H	-1.609861	-0.5069928	-3.875519	
H	-0.138509	-1.668056	-3.840441	
H	-1.822232	-2.330884	-3.597103	
H	-2.663453	0.4121069	-1.733818	
H	-3.201401	-1.408671	-1.625194	
H	-2.445062	-0.6777173	-0.2474648	
C	-3.048952	3.89036	3.427606	
N	-4.218246	3.75297	3.538507	
