10
charge = 0
 C 0.967519 0.064216 0.069187
 C 2.481619 0.040246 0.081647
 N 2.973820 -1.242234 -0.402061
 H 0.586506 1.035157 0.393844
 H 0.558766 -0.693883 0.744381
 H 0.590102 -0.143009 -0.934275
 H 2.840246 0.296395 1.091282
 H 2.862404 0.816461 -0.589420
 H 2.666715 -1.987897 0.211818
 H 3.986104 -1.261851 -0.402293