12
charge = 0
 C 0.333654 1.006387 -0.150425
 C 1.018133 -0.340074 0.155430
 C -0.341358 -1.029954 -0.070109
 C -1.019632 0.335402 0.155205
 H 0.418726 1.262934 -1.209224
 H 0.622233 1.876760 0.441328
 H 1.324369 -0.400189 1.202672
 H 1.859560 -0.643783 -0.469677
 H -0.615333 -1.855849 0.588552
 H -0.450890 -1.361000 -1.105735
 H -1.301396 0.470020 1.202390
 H -1.875666 0.594634 -0.470096