12
charge = 0
 C 1.172436 -0.055537 0.151339
 C 2.653739 0.010770 -0.088540
 C 3.251016 -0.660984 -1.285864
 C 3.195391 0.836795 -1.213711
 H 0.625869 -0.031357 -0.795614
 H 0.892430 -0.975835 0.671795
 H 0.827792 0.789251 0.754415
 H 3.261193 -0.009922 0.811248
 H 2.573676 -1.159522 -1.969789
 H 4.215790 -1.142582 -1.184246
 H 2.480417 1.347463 -1.848636
 H 4.122542 1.376149 -1.063506