14
charge = 0
 C 0.925074 0.138263 0.077923
 C 2.442153 0.065097 0.042210
 C 2.966049 -1.176924 -0.661629
 C 4.483127 -1.250096 -0.697330
 H 0.577479 1.039310 0.588631
 H 0.500973 -0.723883 0.600528
 H 0.506903 0.147423 -0.932683
 H 2.836091 0.091404 1.065117
 H 2.841978 0.956066 -0.456320
 H 2.572117 -1.203226 -1.684538
 H 2.566217 -2.067893 -0.163104
 H 4.907236 -0.387925 -1.219888
 H 4.830723 -2.151117 -1.208084
 H 4.901290 -1.259309 0.313278