11
charge = 0
 C 0.340942 1.027451 -0.136481
 C 0.989613 -0.334687 0.157209
 N -0.320177 -0.966153 -0.069194
 C -0.993592 0.322917 0.155235
 H 0.435645 1.309905 -1.184979
 H 0.619249 1.868674 0.496360
 H 1.344911 -0.398774 1.194955
 H 1.785721 -0.677745 -0.508856
 H -0.568220 -1.712289 0.567613
 H -1.318648 0.484426 1.192305
 H -1.835755 0.523085 -0.512458