11
charge = 0
 C 0.938724 0.089788 0.016001
 C 2.436511 0.027584 0.029549
 C 3.166117 -0.755805 -0.983555
 N 3.210094 0.706596 -1.004621
 H 0.506443 -0.691101 0.647502
 H 0.552143 -0.048171 -0.998257
 H 0.580830 1.054470 0.386957
 H 2.888787 0.112851 1.014723
 H 2.576529 -1.268681 -1.738182
 H 4.104670 -1.239497 -0.734907
 H 2.585061 1.059966 -1.722500