13
charge = 0
 C 0.917634 0.026077 -0.069312
 C 2.434959 -0.037155 -0.073934
 C 2.966260 -1.442066 0.138962
 N 4.420957 -1.447677 0.166677
 H 0.560696 1.045599 -0.229820
 H 0.511012 -0.319666 0.885298
 H 0.489680 -0.601756 -0.856037
 H 2.848531 0.611236 0.704409
 H 2.816347 0.347007 -1.028296
 H 2.534451 -2.105828 -0.628898
 H 2.610345 -1.815122 1.105713
 H 4.789698 -1.153648 -0.730153
 H 4.773719 -2.381099 0.336080