13
charge = 0
 C 1.077759 0.046081 -0.058152
 N 2.519036 0.098154 -0.048299
 C 3.024589 0.941513 -1.103481
 C 3.024450 0.503283 1.240369
 H 0.724545 -0.318547 -1.025599
 H 0.610783 1.032404 0.125378
 H 0.724535 -0.641938 0.713524
 H 2.672386 0.578505 -2.071892
 H 4.116863 0.917603 -1.109184
 H 2.707408 1.996604 -0.999439
 H 2.673111 -0.185913 2.011870
 H 2.706488 1.524201 1.525290
 H 4.116747 0.479948 1.236606