10
charge = 0
 C 0.350812 1.058109 -0.089758
 C 0.980042 -0.314303 0.168750
 O -0.303343 -0.914509 0.390951
 C -0.973802 0.333578 0.168554
 H 0.480001 1.447404 -1.098673
 H 0.607755 1.833203 0.630894
 H 1.619823 -0.384697 1.054540
 H 1.498822 -0.768401 -0.681782
 H -1.529047 0.659446 1.054224
 H -1.660963 0.279361 -0.682099