10
charge = 0
 O 1.017489 0.141898 0.235109
 C 2.371570 -0.124171 -0.081685
 C 2.811057 -1.328210 0.675985
 C 3.409814 -2.376052 0.130923
 H 0.786790 1.003762 -0.118553
 H 3.005920 0.728402 0.205343
 H 2.508205 -0.292619 -1.158512
 H 2.621789 -1.298393 1.746416
 H 3.593846 -2.429982 -0.937791
 H 3.741218 -3.216255 0.729756