15
charge = 0
 C 1.436771 -0.108656 -0.404580
 C 2.716145 0.595318 -0.048871
 C 2.905452 1.220691 1.302315
 C 3.720435 0.022318 0.912245
 C 3.528329 -1.301777 1.596761
 H 0.998699 -0.619598 0.454925
 H 0.693118 0.604567 -0.770825
 H 1.595002 -0.854854 -1.188695
 H 3.152308 1.148732 -0.875553
 H 2.116922 1.062261 2.030961
 H 3.388679 2.187676 1.373778
 H 4.755024 0.234623 0.658329
 H 3.834488 -2.132604 0.954319
 H 4.124697 -1.353186 2.511920
 H 2.487230 -1.468500 1.879673