17
charge = 0
 C 1.030537 -0.024248 0.011045
 C 2.549257 -0.045132 -0.031144
 C 3.103705 -0.461159 -1.384614
 C 4.623132 -0.486147 -1.440194
 C 5.164116 -0.903228 -2.797436
 H 0.658726 0.277464 0.993043
 H 0.616828 -1.011899 -0.211693
 H 0.625722 0.674600 -0.726490
 H 2.929268 -0.727182 0.738400
 H 2.938093 0.946687 0.227505
 H 2.724200 0.220576 -2.156554
 H 2.715356 -1.454052 -1.645433
 H 5.000223 -1.167595 -0.668683
 H 5.009062 0.506284 -1.179544
 H 4.819842 -1.905625 -3.067430
 H 6.256515 -0.912938 -2.810247
 H 4.828797 -0.219097 -3.582132