17
charge = 0
 C 1.840288 -1.478709 -0.789948
 C 2.608153 -0.215511 -0.408310
 C 3.248332 -0.404744 0.964806
 C 1.647200 0.970140 -0.362919
 C 3.696846 0.051010 -1.445013
 H 2.505285 -2.346226 -0.829731
 H 1.370452 -1.371727 -1.771925
 H 1.051820 -1.694167 -0.063091
 H 2.489914 -0.598124 1.728939
 H 3.806457 0.486855 1.264778
 H 3.943185 -1.249502 0.961672
 H 1.173264 1.129463 -1.335755
 H 0.854615 0.806072 0.372849
 H 2.171186 1.890939 -0.090849
 H 4.400947 -0.784294 -1.499199
 H 4.264798 0.952055 -1.196028
 H 3.266166 0.191070 -2.440666