11
charge = 0
 C -0.000025 1.242001 0.001470
 C 1.171524 0.316813 0.000879
 C 0.729933 -0.950747 -0.000210
 C -0.729885 -0.950780 -0.000408
 C -1.171533 0.316761 0.000562
 H 0.000078 1.905327 -0.873619
 H -0.000159 1.903911 0.877630
 H 2.202352 0.643562 0.001283
 H 1.346110 -1.840770 -0.000850
 H -1.346021 -1.840830 -0.001214
 H -2.202375 0.643463 0.000687