11
charge = 0
 C 1.398745 0.380028 1.024507
 C 2.304670 -0.001319 0.138233
 C 3.081934 0.943953 -0.732634
 C 4.521888 0.759550 -0.620452
 C 5.706060 0.591650 -0.520948
 H 0.853290 -0.341735 1.620882
 H 1.169811 1.428616 1.187928
 H 2.523894 -1.057007 0.002139
 H 2.822177 1.977585 -0.483690
 H 2.795141 0.792854 -1.781315
 H 6.756680 0.447717 -0.432051