11
charge = 0
 C 0.876255 -0.072240 0.003459
 C 2.371302 -0.075813 -0.014465
 C 3.108312 -0.293492 -1.106740
 C 4.524733 -0.296439 -1.121530
 C 5.727616 -0.305989 -1.169447
 H 0.490172 0.126961 1.003049
 H 0.471598 -1.034521 -0.322785
 H 0.471598 0.691465 -0.666745
 H 2.889751 0.110745 0.921651
 H 2.618283 -0.483490 -2.060118
 H 6.791100 -0.312496 -1.202099