15
charge = 0
 C 2.122561 0.512671 1.532541
 C 2.590287 0.027943 0.163406
 C 3.089400 -1.389438 0.155936
 C 2.091301 -2.456577 0.482140
 C 4.354496 -1.679227 -0.133562
 H 1.801506 1.555611 1.483368
 H 2.928790 0.442070 2.266775
 H 1.278459 -0.072041 1.904671
 H 3.381934 0.686022 -0.204769
 H 1.756501 0.112871 -0.545428
 H 1.231978 -2.404853 -0.195278
 H 1.697727 -2.339105 1.496314
 H 2.530434 -3.451835 0.403960
 H 5.071697 -0.901651 -0.374423
 H 4.715318 -2.702281 -0.141843