15
charge = 0
 C 1.520029 0.757782 -0.048180
 C 2.973756 0.321890 0.014268
 C 3.134013 -1.141625 0.419077
 C 4.560744 -1.564782 0.526844
 C 5.128075 -2.533651 -0.178219
 H 1.428949 1.805740 -0.342625
 H 1.030750 0.641368 0.923055
 H 0.959783 0.159657 -0.772305
 H 3.519000 0.953330 0.724842
 H 3.452580 0.475938 -0.958330
 H 2.612760 -1.783915 -0.298862
 H 2.639436 -1.290180 1.388407
 H 5.168718 -1.010097 1.240925
 H 4.561899 -3.111366 -0.902899
 H 6.174698 -2.788188 -0.056897