14
charge = 0
 C 0.835796 0.014656 -0.195025
 C 2.302681 -0.137444 0.103635
 C 2.660733 -0.152743 1.564403
 C 3.143318 -0.879065 -0.857571
 N 3.257222 0.577060 -0.744170
 H 0.254622 -0.786339 0.270234
 H 0.644945 -0.014293 -1.271021
 H 0.458350 0.965754 0.193461
 H 2.190674 -0.999040 2.073328
 H 2.323809 0.765975 2.053520
 H 3.741480 -0.224895 1.691504
 H 2.664132 -1.296146 -1.738499
 H 4.008515 -1.433102 -0.507404
 H 2.773534 1.021723 -1.517705