14
charge = 0
 C 1.028067 0.036114 0.100514
 C 2.525255 -0.005476 0.052990
 C 3.269008 -0.721785 -1.009083
 N 3.188296 0.725693 -1.006496
 C 4.400948 1.422699 -0.645635
 H 0.631715 -0.816665 0.658342
 H 0.616659 0.010071 -0.910056
 H 0.676178 0.950734 0.585285
 H 3.023418 0.019643 1.023032
 H 2.728907 -1.225438 -1.805040
 H 4.220606 -1.175701 -0.740224
 H 5.025527 1.551234 -1.533027
 H 4.992904 0.892691 0.118261
 H 4.150904 2.413885 -0.259553