10
charge = 0
 C 0.956875 -0.021041 0.242349
 C 2.225866 0.183681 -0.069351
 C 2.942959 -0.553404 -1.164454
 C 3.546759 0.346822 -2.138978
 N 4.025263 1.065110 -2.897987
 H 0.483283 0.519786 1.052701
 H 0.344244 -0.734770 -0.299291
 H 2.816693 0.910503 0.480515
 H 2.258812 -1.227606 -1.686434
 H 3.746656 -1.169890 -0.744961