14
charge = 0
 C 0.885048 -0.010887 0.102487
 C 2.372685 0.024992 0.023382
 C 3.194571 0.089110 1.064040
 C 4.683426 0.116403 0.966796
 N 5.214512 1.289071 1.650276
 H 0.487829 -0.927037 -0.346591
 H 0.439762 0.824361 -0.447584
 H 0.539217 0.038235 1.136684
 H 2.805664 -0.011684 -0.976288
 H 2.788248 0.142662 2.072948
 H 4.975289 0.036617 -0.092002
 H 5.092223 -0.766216 1.473592
 H 4.915318 2.132765 1.176793
 H 6.226597 1.280928 1.644757