10
charge = 0
 C 0.865111 0.010921 0.068724
 C 2.357068 -0.028316 0.052250
 C 3.074202 -1.065453 -0.383172
 C 4.494869 -1.066593 -0.383651
 N 5.647257 -1.090375 -0.393636
 H 0.495160 0.955573 0.465308
 H 0.457090 -0.795070 0.684625
 H 0.457088 -0.113884 -0.937943
 H 2.892360 0.843093 0.418093
 H 2.597285 -1.965427 -0.761008