14
charge = 0
 C 1.042137 -0.245028 -0.211063
 C 2.510732 0.034307 -0.169409
 C 3.055959 1.068843 -0.798985
 C 3.342933 -0.905032 0.657554
 N 3.147520 -2.298766 0.267293
 H 0.503721 0.527224 -0.761310
 H 0.623026 -0.302971 0.800067
 H 0.844588 -1.205097 -0.698285
 H 2.452700 1.770394 -1.365309
 H 4.125105 1.249513 -0.769734
 H 3.108505 -0.720009 1.720835
 H 4.397969 -0.658682 0.519350
 H 2.226575 -2.618461 0.541631
 H 3.811010 -2.888235 0.754154