12
charge = 0
 C 0.942482 -0.098132 0.017256
 C 2.392899 -0.091403 -0.016049
 C 3.594945 -0.088010 -0.030094
 C 5.050283 -0.074193 -0.077064
 N 5.586271 1.219837 0.333477
 H 0.521735 -0.013631 -0.987887
 H 0.563288 0.736720 0.611991
 H 0.566011 -1.022530 0.462587
 H 5.361367 -0.385620 -1.087062
 H 5.434079 -0.834722 0.611785
 H 5.201231 1.951076 -0.251654
 H 6.591111 1.230127 0.207134