12
charge = 0
 C 0.857267 -0.032810 0.050782
 C 2.374734 -0.037183 0.044984
 C 2.945003 1.139356 0.839381
 C 4.398885 1.159194 0.850690
 N 5.548582 1.158264 0.847423
 H 0.462795 -0.876239 -0.518524
 H 0.460856 0.883502 -0.394833
 H 0.463592 -0.105324 1.068184
 H 2.751292 0.011382 -0.980063
 H 2.753993 -0.969619 0.471131
 H 2.596180 1.104065 1.876354
 H 2.593421 2.087912 0.421092