16
charge = 0
 C 1.181302 0.217942 -0.851396
 C 2.625127 0.462357 -0.448542
 C 3.080033 -0.443331 0.679741
 N 4.465785 -0.212940 1.025358
 C 4.920616 -1.022957 2.132157
 H 0.876549 0.881497 -1.663425
 H 0.499829 0.386048 -0.012760
 H 1.035810 -0.810760 -1.192816
 H 2.747509 1.507950 -0.139665
 H 3.290625 0.314446 -1.304460
 H 2.980671 -1.490518 0.367494
 H 2.401907 -0.317935 1.545828
 H 4.599891 0.767815 1.239596
 H 4.906061 -2.077954 1.843358
 H 4.307933 -0.922837 3.044565
 H 5.951742 -0.765435 2.382768