14
charge = 0
 C 0.906363 0.017332 -0.012711
 C 2.431335 -0.042213 -0.107729
 N 3.116505 0.424907 1.095760
 C 2.880760 -1.437831 -0.413902
 C 3.427653 -1.833899 -1.552282
 H 0.576601 1.033751 0.220943
 H 0.544474 -0.644874 0.780175
 H 0.434941 -0.288726 -0.949996
 H 2.754250 0.603909 -0.931748
 H 2.890655 -0.180821 1.877891
 H 2.786288 1.350518 1.344976
 H 2.710566 -2.166921 0.379256
 H 3.614670 -1.135932 -2.362681
 H 3.712529 -2.866491 -1.717772