12
charge = 0
 C 1.029572 0.085517 0.032256
 C 2.559029 0.054474 0.090889
 N 3.121598 0.134702 1.435166
 C 3.068167 -1.139569 -0.579949
 C 3.450219 -2.135795 -1.129404
 H 0.658433 0.998938 0.504303
 H 0.611966 -0.774332 0.561184
 H 0.671051 0.059925 -0.999124
 H 2.939112 0.922454 -0.462423
 H 2.868965 -0.692183 1.964012
 H 2.729829 0.933957 1.919563
 H 3.802757 -3.013588 -1.617072