16
charge = 0
 C 2.762503 0.189893 1.386587
 C 2.483276 0.153048 -0.103134
 N 2.988243 -1.036136 -0.762185
 C 2.481447 -1.135139 -2.109915
 C 4.429922 -1.111407 -0.751505
 H 2.248022 1.039194 1.841782
 H 3.825981 0.299510 1.608127
 H 2.406247 -0.725366 1.864638
 H 2.882774 1.070840 -0.579286
 H 1.400248 0.171960 -0.259885
 H 1.388983 -1.138795 -2.098678
 H 2.818993 -2.068516 -2.566601
 H 2.813107 -0.301870 -2.757935
 H 4.808936 -1.137279 0.270855
 H 4.905807 -0.259112 -1.273276
 H 4.751812 -2.030024 -1.246989