14
charge = 0
 C 1.070412 0.012018 -0.053478
 N 2.501563 0.006760 0.035919
 C 3.161118 1.063559 0.806601
 C 4.197333 0.029930 1.271298
 C 3.150099 -1.015442 0.860718
 H 0.735206 0.882000 -0.624258
 H 0.578866 0.040400 0.936813
 H 0.725851 -0.882878 -0.578321
 H 2.543134 1.423293 1.646126
 H 3.501914 1.923719 0.223720
 H 4.501214 0.055518 2.316174
 H 5.078215 0.008572 0.630186
 H 2.528571 -1.324446 1.717652
 H 3.481604 -1.908323 0.323470