12
charge = 0
 C 0.987234 0.088763 0.008234
 N 2.427496 0.101599 -0.114345
 C 2.940864 -1.127209 -0.689002
 C 4.394843 -1.170549 -0.674900
 C 5.593377 -1.215331 -0.641427
 H 0.653621 1.005510 0.496896
 H 0.591334 -0.770932 0.575050
 H 0.535264 0.062950 -0.987577
 H 2.860329 0.255436 0.787274
 H 2.591902 -1.195779 -1.726585
 H 2.560498 -2.031239 -0.178485
 H 6.656829 -1.250628 -0.620530