11
charge = 0
 C 0.932875 0.075944 0.122967
 N 2.376830 -0.013105 0.084203
 C 2.889050 -0.981993 1.026455
 C 4.347117 -1.016105 1.017212
 N 5.495883 -1.027227 1.031059
 H 0.601009 0.854594 -0.564648
 H 0.523356 0.296154 1.122173
 H 0.499356 -0.869444 -0.214514
 H 2.795385 0.891258 0.259625
 H 2.526055 -1.977346 0.746888
 H 2.565883 -0.812321 2.068871