10
charge = 0
 N 0.988995 0.041176 0.015648
 C 2.140113 0.041495 0.027691
 C 3.571307 0.041910 0.035361
 C 4.312086 -0.698117 -1.051018
 C 4.311836 0.789098 -1.046290
 H 4.007981 0.038676 1.026772
 H 3.712490 -1.206184 -1.794384
 H 5.211631 -1.219598 -0.751339
 H 3.712383 1.301799 -1.786607
 H 5.211378 1.308834 -0.743534