13
charge = 0
 C 1.006473 0.157747 -0.065291
 C 2.498680 -0.009701 -0.058834
 C 3.187620 -0.799146 -1.141980
 C 3.352848 0.677263 -1.078335
 O 4.620883 1.138534 -0.731554
 H 0.505922 -0.714501 0.364225
 H 0.632158 0.279405 -1.085330
 H 0.697991 1.036412 0.508443
 H 2.960135 -0.095976 0.920448
 H 2.584138 -1.216945 -1.939280
 H 4.051591 -1.387298 -0.859578
 H 2.840162 1.270970 -1.834288
 H 4.516490 1.938015 -0.208635