11
charge = 0
 C 2.528783 -1.170061 -0.180295
 C 2.138221 0.048155 0.163448
 C 3.025436 1.078685 0.748309
 C 4.389747 1.299777 0.283633
 O 3.348842 2.190961 -0.080941
 H 1.833270 -1.891922 -0.592577
 H 3.557783 -1.491472 -0.056979
 H 1.097586 0.340129 0.040357
 H 2.788454 1.367762 1.773034
 H 4.779390 0.689045 -0.526523
 H 5.131179 1.706051 0.967354