13
charge = 0
 C 0.937301 -0.051979 0.126684
 C 2.428621 -0.028183 0.028550
 C 3.090203 -0.321644 -1.086855
 C 3.168665 0.343078 1.281910
 O 2.907303 -0.546966 2.352662
 H 0.477441 -0.403840 -0.797430
 H 0.551704 0.949670 0.345470
 H 0.615584 -0.695033 0.949808
 H 2.574022 -0.590058 -2.002530
 H 4.174436 -0.292940 -1.122580
 H 2.837000 1.324018 1.636843
 H 4.244016 0.409591 1.074302
 H 3.186003 -1.424293 2.075655