15
charge = 0
 C 1.180071 0.134953 0.222546
 C 2.505651 0.454404 -0.444738
 C 2.801770 -0.538727 -1.561393
 C 3.635576 0.468442 0.577009
 O 2.340277 1.760394 -0.995369
 H 0.372475 0.161162 -0.511690
 H 0.961030 0.871857 0.997784
 H 1.204877 -0.856263 0.679562
 H 3.743895 -0.290297 -2.060450
 H 2.003760 -0.517497 -2.306275
 H 2.889892 -1.556966 -1.174447
 H 4.586064 0.726839 0.099309
 H 3.431406 1.206941 1.354860
 H 3.756735 -0.509818 1.048838
 H 3.161523 2.006086 -1.430756