13
charge = 0
 C 0.989469 0.096142 -0.008160
 C 2.515088 0.087569 -0.036130
 C 3.096198 1.031889 1.012171
 C 3.004630 -1.309221 0.234070
 O 3.663163 -1.975515 -0.514828
 H 0.613983 1.108829 -0.171109
 H 0.613073 -0.244481 0.961261
 H 0.569511 -0.550427 -0.781529
 H 2.873201 0.366141 -1.031027
 H 2.801061 0.727366 2.020950
 H 2.727143 2.047432 0.852329
 H 4.187153 1.056420 0.970575
 H 2.701136 -1.712145 1.230216