15
charge = 0
 C 1.022079 0.099076 -0.097273
 C 2.528925 0.125721 -0.140111
 O 3.029957 -0.721431 0.862738
 C 4.434209 -0.757275 0.897328
 C 4.874285 -1.688844 1.998075
 H 0.608038 0.751134 -0.869573
 H 0.659566 0.440199 0.874259
 H 0.651188 -0.913896 -0.264564
 H 2.901684 1.150809 0.013569
 H 2.893231 -0.203469 -1.126163
 H 4.831511 0.256021 1.066930
 H 4.825168 -1.096363 -0.075062
 H 4.499956 -1.345255 2.964245
 H 5.964620 -1.733427 2.045384
 H 4.494186 -2.697009 1.822628