11
charge = 0
 C 0.891487 -0.064499 0.056280
 C 2.412811 -0.033556 0.007751
 O 2.907689 -0.371358 -1.274986
 C 2.932701 1.257576 0.461373
 C 3.339046 2.333553 0.805924
 H 0.539814 -1.041157 -0.279525
 H 0.473266 0.705785 -0.596024
 H 0.531313 0.116499 1.070858
 H 2.805345 -0.811319 0.670785
 H 2.743490 0.372829 -1.861957
 H 3.709737 3.281849 1.116631