11
charge = 0
 O 1.250238 -0.001421 0.732352
 C 2.373518 -0.001013 0.332122
 C 3.367053 1.101944 -0.021980
 C 4.391265 -0.000281 -0.387769
 C 3.367697 -1.103249 -0.022420
 H 3.627754 1.740865 0.824985
 H 3.033045 1.741777 -0.842089
 H 5.287605 -0.000143 0.231000
 H 4.692681 0.000016 -1.434409
 H 3.628772 -1.742354 0.824291
 H 3.034063 -1.742952 -0.842783