11
charge = 0
 O 1.178022 -0.686444 0.024815
 C 2.214683 -0.079428 0.048701
 C 2.942495 0.310730 1.263460
 C 4.452629 0.340573 1.187185
 C 3.704697 1.616178 1.224808
 H 2.710409 0.239496 -0.899127
 H 2.480919 0.012460 2.196372
 H 4.906476 0.041222 0.249756
 H 4.984518 0.017731 2.072280
 H 3.641996 2.199479 0.313631
 H 3.706167 2.199113 2.136320