10
charge = 0
 C -1.265557 -0.004366 -0.126451
 C -0.399409 -1.246904 0.062554
 C 0.955248 -0.613196 0.042676
 N 0.945840 0.644921 -0.108885
 O -0.343289 1.103397 -0.217991
 H -1.932972 0.184513 0.716766
 H -1.852601 -0.028302 -1.046820
 H -0.512385 -1.980180 -0.740308
 H -0.586314 -1.766270 1.006205
 H 1.904150 -1.123412 0.144063