12
charge = 0
 C 0.892347 -0.383001 -0.042137
 C 2.227866 0.331567 -0.077596
 C 2.516047 0.964092 -1.426081
 N 3.495051 1.905575 -1.417594
 O 1.935802 0.648243 -2.442444
 H 0.749717 -0.887224 0.915556
 H 0.833482 -1.122601 -0.840617
 H 0.068481 0.318099 -0.186764
 H 3.043369 -0.373366 0.123754
 H 2.287901 1.096332 0.703748
 H 3.989575 2.153203 -0.581174
 H 3.771980 2.316692 -2.291850