10
charge = 0
 C 0.896790 -0.037900 0.189158
 C 2.207481 -0.106073 -0.014364
 N 2.820212 -0.241476 -1.246809
 C 4.166729 -0.309927 -1.438385
 O 4.694645 -0.428197 -2.514639
 H 0.510260 0.068082 1.192357
 H 0.182411 -0.084947 -0.624792
 H 2.908013 -0.057253 0.813274
 H 2.251159 -0.295764 -2.079790
 H 4.730509 -0.245125 -0.489120