14
charge = 0
 C 0.874820 -0.029908 0.051688
 C 2.390331 -0.135060 0.028144
 N 3.093786 1.140570 0.149189
 C 2.913171 -1.038943 1.136669
 O 4.312714 -1.106167 1.116037
 H 0.512187 0.604657 -0.760556
 H 0.531318 0.403800 0.996340
 H 0.405371 -1.011957 -0.054448
 H 2.710320 -0.574701 -0.923230
 H 2.694520 1.696964 0.897775
 H 3.023018 1.684772 -0.700346
 H 2.522344 -2.053005 1.015371
 H 2.546899 -0.659695 2.106909
 H 4.592782 -0.209707 0.877247