12
charge = 0
 C 0.963626 -0.107906 -0.082840
 C 2.459992 0.147935 -0.056705
 N 2.845813 1.321580 -0.808082
 C 3.222438 2.481402 -0.227098
 O 3.318485 2.671820 0.963537
 H 0.720330 -1.003485 0.493607
 H 0.602318 -0.259915 -1.103530
 H 0.421599 0.735348 0.349277
 H 3.003207 -0.718091 -0.447351
 H 2.800852 0.316678 0.965364
 H 2.769003 1.307471 -1.810980
 H 3.449737 3.265553 -0.974400