12
charge = 0
 C 1.065581 0.082702 -0.018213
 N 2.512609 0.058667 -0.046739
 C 3.243560 -0.745305 -1.002511
 C 3.222995 0.796111 0.829900
 O 4.433671 0.836060 0.877197
 H 0.683473 -0.573474 -0.798041
 H 0.671772 1.085820 -0.205093
 H 0.671760 -0.272904 0.938189
 H 2.539694 -1.280045 -1.638042
 H 3.885996 -1.467054 -0.492275
 H 3.885840 -0.118996 -1.626373
 H 2.579058 1.376138 1.519291