12
charge = 0
 N 0.973619 0.052405 0.011955
 C 2.406761 0.106407 0.016550
 C 3.205002 1.118844 0.864038
 O 4.018986 0.070043 1.400860
 C 3.137150 -0.930711 0.873799
 H 0.571254 0.757423 -0.591187
 H 0.594778 0.183460 0.942115
 H 2.758062 0.090227 -1.017091
 H 2.595675 1.601687 1.641347
 H 3.797920 1.877418 0.344211
 H 2.496883 -1.362657 1.654642
 H 3.674902 -1.733524 0.363062