12
charge = 0
 N 0.935839 -0.310892 0.044641
 C 2.313077 0.143383 0.126962
 C 2.764355 0.628341 -1.215085
 C 4.143593 0.485320 -1.663020
 O 3.132926 -0.382294 -2.148713
 H 0.599187 -0.609813 0.950546
 H 0.874926 -1.108823 -0.576675
 H 3.025559 -0.621070 0.473817
 H 2.361221 0.979818 0.832700
 H 2.156599 1.422174 -1.646879
 H 4.874559 0.021891 -1.003891
 H 4.547570 1.183554 -2.391802