10
charge = 0
 O 1.135018 -0.055438 0.463310
 C 2.273214 0.029873 0.100176
 C 3.279564 1.168295 -0.133486
 C 4.267535 0.056702 -0.546676
 N 3.200456 -0.898284 -0.277961
 H 3.539855 1.720744 0.768697
 H 2.989312 1.860606 -0.922999
 H 5.138873 -0.053302 0.103105
 H 4.587233 0.086310 -1.590934
 H 3.150339 -1.902597 -0.344532