12
charge = 0
 O 1.008017 -0.062389 0.165107
 C 2.405314 -0.015556 0.115679
 C 3.153636 1.018577 0.978255
 N 4.098134 -0.049672 1.346642
 C 3.106359 -1.072273 0.969110
 H 0.651164 0.527381 -0.502925
 H 2.773287 -0.020893 -0.915791
 H 2.503709 1.354173 1.797043
 H 3.604760 1.885411 0.487189
 H 4.385736 -0.060727 2.316065
 H 2.440653 -1.384003 1.784358
 H 3.513532 -1.955719 0.471559