10
charge = 0
 O 1.177657 -0.070652 0.352222
 C 2.343058 -0.070204 0.114655
 C 3.403293 1.002170 -0.111920
 N 4.330091 -0.069209 -0.530618
 C 3.403694 -1.141742 -0.113991
 H 3.660004 1.521099 0.820336
 H 3.179966 1.746014 -0.881769
 H 5.211202 -0.069521 -0.036990
 H 3.660599 -1.662373 0.817261
 H 3.180646 -1.884182 -0.885276