10
charge = 0
 O 1.713318 -0.592156 0.441030
 C 2.284071 0.277711 -0.135823
 N 2.958971 1.339198 0.513270
 C 4.130485 1.806166 -0.245706
 C 2.900021 2.593203 -0.255831
 H 2.326681 0.315784 -1.251277
 H 4.387406 1.265034 -1.153202
 H 4.968861 2.088348 0.378622
 H 2.311637 2.592465 -1.170247
 H 2.796939 3.477157 0.360842