16
charge = 0
 C 1.120817 -0.021804 0.150557
 C 2.596244 0.081011 -0.104064
 C 3.199874 -0.490015 -1.349022
 C 3.127761 0.996847 -1.180884
 C 4.322863 1.827293 -0.935416
 C 5.587914 1.451358 -1.074483
 H 0.864756 -0.980457 0.610776
 H 0.557838 0.056807 -0.783573
 H 0.773202 0.772252 0.817210
 H 3.225297 0.020811 0.779079
 H 2.530982 -0.943991 -2.070978
 H 4.167667 -0.969713 -1.275645
 H 2.350506 1.497373 -1.753401
 H 4.116867 2.840811 -0.594321
 H 5.857094 0.461704 -1.427731
 H 6.402510 2.127012 -0.842013