14
charge = 0
 C 1.045280 0.082483 0.027014
 C 2.545133 0.042342 0.057903
 C 3.306975 -0.745647 -0.951455
 C 3.331367 0.765089 -1.011276
 C 4.525927 1.475912 -0.674819
 C 5.529837 2.071991 -0.388291
 H 0.619708 -0.774904 0.555504
 H 0.675005 0.054766 -1.001268
 H 0.661861 0.991750 0.496851
 H 2.992053 0.089818 1.045338
 H 2.747954 -1.255361 -1.727476
 H 4.220466 -1.238406 -0.645345
 H 2.740534 1.217605 -1.801810
 H 6.418202 2.600061 -0.135779