14
charge = 0
 C 1.105528 0.065029 0.177451
 C 2.403180 0.064826 -0.092083
 C 3.268213 -1.167572 -0.271712
 C 4.626268 -0.599448 -0.554488
 C 4.626442 0.728405 -0.554650
 C 3.268535 1.296954 -0.272014
 H 0.549605 -0.859220 0.293007
 H 0.549847 0.989452 0.292781
 H 2.907913 -1.800091 -1.091657
 H 3.265055 -1.799500 0.624322
 H 5.496507 -1.219413 -0.735554
 H 5.496843 1.348099 -0.735868
 H 2.908401 1.929367 -1.092113
 H 3.265543 1.929102 0.623866