14
charge = 0
 C 1.047165 -0.182097 -0.169001
 C 2.534818 -0.076336 -0.064650
 C 3.203340 0.750458 0.751108
 C 2.547611 1.711220 1.699046
 C 4.628465 0.750931 0.751575
 C 5.831303 0.786773 0.786940
 H 0.762399 -0.931108 -0.908015
 H 0.590480 0.765898 -0.469590
 H 0.590479 -0.469923 0.782947
 H 3.124354 -0.725076 -0.704732
 H 1.460959 1.655005 1.643581
 H 2.854253 2.737060 1.477414
 H 2.854253 1.503392 2.727771
 H 6.894942 0.807133 0.807028