16
charge = 0
 C 0.673620 0.241103 0.042190
 C 2.156230 0.361263 0.132051
 C 3.012500 -0.019276 -0.808415
 C 4.502657 0.108378 -0.717211
 C 5.062922 0.991871 -1.789582
 C 5.930065 0.607808 -2.715614
 H 0.277543 -0.380878 0.851422
 H 0.366102 -0.200056 -0.907939
 H 0.191403 1.219519 0.135888
 H 2.552843 0.794293 1.050254
 H 2.627309 -0.447998 -1.733068
 H 4.969297 -0.880701 -0.793160
 H 4.764830 0.513714 0.267081
 H 4.700134 2.018130 -1.791398
 H 6.308780 -0.409519 -2.748352
 H 6.296155 1.293461 -3.471056