14
charge = 0
 C 0.951532 -0.037238 0.148161
 C 2.452085 0.021979 0.086238
 C 3.100815 0.955739 -0.890350
 C 3.188829 -0.753262 0.897031
 C 4.602736 -0.763751 0.908001
 C 5.807546 -0.782226 0.927416
 H 0.491697 0.645719 -0.566125
 H 0.585583 0.227175 1.144019
 H 0.585589 -1.043947 -0.071355
 H 2.363011 1.510185 -1.470203
 H 3.744588 0.409367 -1.585491
 H 3.744617 1.674646 -0.375688
 H 2.693607 -1.422068 1.596511
 H 6.871237 -0.798987 0.944796