16
charge = 0
 C 0.908020 0.014585 0.073202
 C 2.440736 0.015724 0.080613
 C 2.955149 1.353294 0.624410
 C 2.955233 -1.132035 0.956623
 C 2.928865 -0.167460 -1.287541
 C 3.329383 -0.318195 -2.410091
 H 0.532334 0.151017 1.090859
 H 0.520813 -0.929590 -0.314412
 H 0.520821 0.823332 -0.549403
 H 2.596067 1.500265 1.646599
 H 2.602463 2.184843 0.011349
 H 4.046496 1.376344 0.634816
 H 2.597241 -1.005357 1.981895
 H 4.046573 -1.151710 0.971874
 H 2.601910 -2.095369 0.584018
 H 3.684196 -0.451689 -3.404412