12
charge = 0
 C 1.062331 0.102641 -0.019393
 C 2.595939 0.025462 0.022953
 C 3.090616 0.027754 1.399230
 C 3.472059 0.046513 2.535937
 C 3.090618 -1.134071 -0.718415
 C 3.472067 -2.082697 -1.344959
 H 0.720863 0.996133 0.504585
 H 0.627474 -0.773703 0.461403
 H 0.720865 0.140762 -1.054492
 H 2.994974 0.922362 -0.469122
 H 3.817741 0.056909 3.542462
 H 3.817753 -2.925967 -1.894591