12
charge = 0
 C 0.943684 -0.074769 0.113494
 C 2.392710 -0.047659 0.054730
 C 3.592038 -0.030324 -0.000561
 C 5.049684 -0.001650 -0.057840
 C 5.609909 -0.803072 -1.140833
 C 6.084920 -1.457313 -2.026065
 H 0.596761 -0.470357 1.071254
 H 0.535050 -0.706659 -0.678933
 H 0.526833 0.928066 -0.007794
 H 5.460941 -0.354974 0.895150
 H 5.391816 1.034133 -0.168559
 H 6.500465 -2.039811 -2.813753