14
charge = 0
 C 0.837930 -0.258728 -0.098197
 C 2.329300 -0.111344 0.188996
 C 2.727738 1.302732 0.429627
 C 3.304150 1.749178 1.548462
 C 3.674271 3.098845 1.771544
 C 4.000431 4.236312 1.992635
 H 0.581759 -1.299866 -0.305849
 H 0.543227 0.337281 -0.965720
 H 0.241079 0.075837 0.753049
 H 2.893883 -0.497070 -0.669252
 H 2.611236 -0.724639 1.050004
 H 2.518566 2.014049 -0.366952
 H 3.516500 1.051655 2.356373
 H 4.285522 5.244248 2.179590