12
charge = 0
 C 1.048378 -0.077413 0.051478
 C 2.574445 -0.087836 -0.023629
 C 3.075924 -0.276258 -1.370662
 C 3.474679 -0.434323 -2.500369
 C 3.929878 -0.612480 -3.773286
 C 4.332018 -0.771599 -4.898946
 H 0.723378 0.067076 1.083562
 H 0.635450 -1.019777 -0.311478
 H 0.635329 0.728964 -0.556340
 H 2.975110 -0.882787 0.615274
 H 2.974995 0.851966 0.372571
 H 4.687805 -0.911013 -5.891985