16
charge = 0
 C 1.050057 0.122782 0.095452
 C 2.566995 0.069622 0.039125
 C 3.085082 -0.665852 -1.185539
 C 4.612240 -0.716073 -1.235087
 C 5.126975 -1.415877 -2.399844
 C 5.531499 -1.997273 -3.369554
 H 0.700844 0.655707 0.982562
 H 0.621097 -0.882763 0.121230
 H 0.640679 0.632331 -0.781230
 H 2.952150 -0.416425 0.943239
 H 2.971638 1.088536 0.047682
 H 2.714280 -0.182751 -2.095397
 H 2.693855 -1.688348 -1.199863
 H 4.993890 -1.202443 -0.329928
 H 5.014332 0.303634 -1.225249
 H 5.895887 -2.512010 -4.226600