15
charge = 0
 C 0.837925 0.010266 1.042531
 C 0.326263 0.987353 -0.029906
 C -1.195373 0.787861 0.038586
 C -1.208781 -0.762850 0.062661
 C 0.309161 -0.990650 0.000809
 N 0.787940 -0.021324 -1.019817
 H 0.373258 0.029601 2.029095
 H 1.924592 0.001815 1.103297
 H 0.706685 2.004302 -0.126798
 H -1.698878 1.205714 -0.836475
 H -1.642471 1.236452 0.928690
 H -1.719643 -1.198892 -0.799162
 H -1.663352 -1.175808 0.966124
 H 0.671913 -2.016544 -0.064364
 H 0.232760 -0.029794 -1.874281