15
charge = 0
 C 0.765117 1.299235 -0.639193
 C -0.338386 0.988888 0.327758
 C -1.420643 0.024536 -0.127788
 C -0.761379 -1.352476 0.052362
 N 0.686480 -1.147235 -0.017792
 C 0.948024 0.212783 0.379298
 H 1.316099 2.222790 -0.501651
 H 0.631306 1.001672 -1.674480
 H -0.570282 1.720974 1.091074
 H -1.699846 0.202394 -1.171035
 H -2.327336 0.125867 0.472971
 H -1.080800 -2.090112 -0.687634
 H -1.016519 -1.753255 1.039684
 H 1.030349 -1.323979 -0.952019
 H 1.659018 0.363218 1.184666