15
charge = 0
 C 0.686197 1.324278 -0.563636
 C -0.445166 0.989321 0.319417
 C -1.482498 0.006246 -0.192215
 C -0.827096 -1.357145 0.056928
 C 0.672619 -1.066754 -0.008559
 N 0.850232 0.313267 0.471649
 H 1.256287 2.236365 -0.416197
 H 0.624849 0.987150 -1.596529
 H -0.721918 1.667286 1.120754
 H -1.685713 0.161018 -1.255528
 H -2.431156 0.110842 0.336495
 H -1.142389 -2.125892 -0.651929
 H -1.085392 -1.709102 1.059404
 H 1.055854 -1.172222 -1.029845
 H 1.249379 -1.741039 0.627911