13
charge = 0
 C 0.304120 1.412050 -0.344541
 C -0.745529 0.783905 0.492732
 C -1.364753 -0.427540 -0.094418
 C -0.443996 -1.370260 -0.264838
 C 0.886318 -0.901025 0.253217
 N 0.678610 0.481165 0.705701
 H 0.609753 2.437883 -0.164588
 H 0.361137 1.080937 -1.378752
 H -1.261800 1.355771 1.257599
 H -2.412574 -0.500334 -0.356222
 H -0.602725 -2.338959 -0.722834
 H 1.677147 -0.937254 -0.504552
 H 1.229401 -1.509940 1.097906