11
charge = 0
 C -1.400362 -0.076129 -0.018107
 C -0.756096 1.150274 0.004786
 C 0.630287 1.166163 0.043592
 N 1.378790 0.068578 0.060126
 C 0.748487 -1.100800 0.037848
 C -0.632042 -1.228980 -0.001237
 H -2.482726 -0.132485 -0.048577
 H -1.314626 2.078908 -0.007109
 H 1.167414 2.110790 0.062366
 H 1.380945 -1.984527 0.051997
 H -1.090970 -2.210593 -0.017985