15
charge = 0
 C 0.872425 -0.000933 0.919733
 C 0.309056 -1.070579 -0.031096
 C 0.717690 -0.043052 -1.100121
 N 0.368950 1.004033 -0.078952
 C -1.087532 0.765241 0.037583
 C -1.187096 -0.787903 0.077633
 H 1.962369 0.027347 0.958084
 H 0.451890 0.092702 1.924665
 H 0.637306 -2.110834 -0.034531
 H 0.148739 0.010166 -2.032306
 H 1.788989 -0.019859 -1.305130
 H -1.599350 1.205459 -0.819635
 H -1.464370 1.242316 0.943652
 H -1.755120 -1.202628 -0.758037
 H -1.619855 -1.165777 1.006566