12
charge = 0
 C 0.434924 1.405314 0.274241
 C 1.138649 0.326014 -0.445726
 C 1.043943 -1.080501 0.083725
 C -0.449468 -1.238935 0.111481
 N -1.113329 -0.263933 -0.354382
 N -0.229663 0.737339 -0.847582
 H 0.711587 2.437675 0.093180
 H 0.035348 1.192896 1.260647
 H 1.923947 0.580123 -1.146724
 H 1.487488 -1.231329 1.072622
 H 1.512600 -1.802559 -0.593509
 H -0.970838 -2.102585 0.512747