15
charge = 0
 C 0.911103 -0.002518 0.959025
 C 0.328483 -1.032023 -0.039923
 C 0.747726 -0.033460 -1.144584
 C 0.321294 0.984050 -0.061432
 N -1.119857 0.756858 0.118607
 C -1.162386 -0.729821 0.086671
 H 2.000974 0.000041 0.967164
 H 0.506147 0.026099 1.972233
 H 0.631502 -2.078324 -0.047339
 H 0.193055 -0.038596 -2.087375
 H 1.822930 -0.043771 -1.328900
 H 0.593983 2.038324 -0.089364
 H -1.627920 1.135568 -0.671704
 H -1.739702 -1.114487 -0.759586
 H -1.594754 -1.130352 1.008196