17
charge = 0
 C 0.812032 -0.308698 -0.739983
 C 1.955304 0.537519 -0.257247
 C 3.369126 0.027128 -0.276080
 C 2.970719 1.162670 -1.173102
 C 2.907595 0.935765 -2.662543
 N 3.433687 2.456643 -0.739851
 H 0.442692 -0.948670 0.066117
 H 1.103979 -0.963753 -1.563423
 H -0.025918 0.304539 -1.084378
 H 1.723038 1.166586 0.596283
 H 3.543418 -0.938166 -0.738932
 H 4.009206 0.258758 0.565656
 H 2.579427 -0.072727 -2.920060
 H 3.896098 1.083727 -3.108975
 H 2.219451 1.643493 -3.136733
 H 4.368555 2.633581 -1.091253
 H 2.834892 3.188127 -1.107207