13
charge = 0
 C 0.979687 0.087181 0.042097
 C 2.478895 0.035942 0.072631
 C 3.238656 -0.753487 -0.934130
 C 3.260800 0.756442 -1.002735
 C 4.458843 1.456386 -0.656387
 N 5.423021 2.016224 -0.368556
 H 0.552988 -0.763655 0.579019
 H 0.607256 0.052994 -0.984945
 H 0.604590 1.001999 0.506607
 H 2.927535 0.086875 1.058987
 H 2.682179 -1.258100 -1.714636
 H 4.152605 -1.245946 -0.629524
 H 2.686355 1.223853 -1.794618