17
charge = 0
 C 0.919577 -0.058376 -0.088467
 C 2.423003 -0.083652 0.057894
 C 3.026487 1.145271 0.752662
 C 4.351391 0.634723 1.339733
 C 4.257989 -0.904620 1.199199
 N 2.883706 -1.229759 0.835208
 H 0.600221 0.795626 -0.689759
 H 0.438079 0.028160 0.891659
 H 0.557592 -0.970086 -0.567748
 H 2.875770 -0.176136 -0.939320
 H 2.348874 1.469976 1.549691
 H 3.157066 1.992434 0.075230
 H 4.466971 0.937816 2.382342
 H 5.214626 1.027072 0.797741
 H 4.550031 -1.439002 2.104821
 H 4.919985 -1.247054 0.397271
 H 2.319032 -1.289694 1.677255