17
charge = 0
 C 0.925662 0.150443 -0.136719
 C 2.421242 0.043389 -0.152304
 C 3.199278 -0.791657 -1.106202
 C 2.595372 -1.641595 -2.183864
 N 3.148336 0.649890 -1.249957
 C 4.347126 1.379273 -0.910837
 H 0.487020 -0.621506 0.501583
 H 0.509085 0.047772 -1.138681
 H 0.615588 1.123771 0.253067
 H 2.887768 0.150167 0.828652
 H 4.131316 -1.184528 -0.695982
 H 2.371275 -2.644064 -1.808931
 H 1.674456 -1.202547 -2.567473
 H 3.288198 -1.744821 -3.023379
 H 5.013030 1.413423 -1.776762
 H 4.899739 0.932007 -0.068533
 H 4.087898 2.406502 -0.642478