17
charge = 0
 C 0.952155 0.004357 0.195234
 C 2.465486 -0.006866 0.098200
 C 3.156342 1.218756 0.738694
 C 4.282005 0.637189 1.603870
 N 4.467471 -0.700343 1.061542
 C 3.125837 -1.189089 0.806426
 H 0.527747 0.862342 -0.332343
 H 0.627988 0.061602 1.238875
 H 0.516391 -0.899368 -0.240068
 H 2.752362 -0.053505 -0.956489
 H 2.455433 1.799105 1.343457
 H 3.550901 1.886823 -0.028665
 H 3.966294 0.622481 2.660474
 H 5.208506 1.213437 1.544568
 H 4.990719 -1.300707 1.685236
 H 2.566033 -1.417321 1.732818
 H 3.143629 -2.094685 0.194352