17
charge = 0
 C 0.855354 0.000756 0.212749
 C 2.363427 0.009551 0.102066
 C 2.819564 -0.007097 -1.345579
 C 3.121878 1.070494 0.934132
 N 4.093243 0.038022 1.321126
 C 3.136155 -1.017815 0.962641
 H 0.421706 0.873485 -0.285196
 H 0.530196 0.012778 1.256099
 H 0.433763 -0.891085 -0.261106
 H 2.440658 0.867134 -1.883556
 H 2.452729 -0.900781 -1.859418
 H 3.910023 -0.000493 -1.407145
 H 2.507802 1.447956 1.763450
 H 3.548160 1.921137 0.392298
 H 4.392659 0.053249 2.286814
 H 2.527139 -1.380851 1.802069
 H 3.574125 -1.877029 0.444157