13
charge = 0
 C 0.912065 0.119019 -0.034335
 C 2.402426 0.088492 -0.029497
 C 3.242658 1.174323 -0.026510
 N 4.530950 0.720358 -0.022432
 C 4.538103 -0.641124 -0.022724
 C 3.234206 -1.064057 -0.027057
 H 0.539920 1.145317 -0.035318
 H 0.496696 -0.382857 0.844344
 H 0.502418 -0.382468 -0.915919
 H 3.019529 2.229864 -0.026989
 H 5.347493 1.302403 -0.019649
 H 5.461337 -1.198077 -0.019853
 H 2.906280 -2.092782 -0.028360