14
charge = 0
 C 1.240253 0.452988 0.076491
 C 2.662999 -0.018966 0.135275
 C 3.202799 -0.905055 -0.935086
 N 3.655696 0.455557 -0.804107
 C 3.452870 1.428969 -1.766976
 N 3.055398 2.619316 -1.601631
 H 0.593774 -0.270667 0.578759
 H 0.896441 0.566316 -0.952829
 H 1.113342 1.414926 0.579297
 H 3.057659 -0.163059 1.138582
 H 2.529777 -1.137611 -1.757118
 H 3.929088 -1.676280 -0.698932
 H 3.756831 1.110328 -2.767297
 H 2.825562 2.794547 -0.623138