14
charge = 0
 C 1.036583 0.012968 0.107880
 C 2.524461 -0.036846 0.282047
 C 3.396867 -0.692391 -0.699977
 N 3.439978 0.771333 -0.552385
 N 2.765830 1.393243 -1.631477
 C 3.340683 2.454825 -1.998501
 H 0.581552 -0.833565 0.628454
 H 0.752826 -0.027646 -0.942059
 H 0.624534 0.930802 0.535548
 H 2.860465 -0.028851 1.315300
 H 2.924115 -1.058391 -1.605622
 H 4.307816 -1.199881 -0.404181
 H 2.904050 3.007361 -2.825942
 H 4.247930 2.824040 -1.516105