17
charge = 0
 C 0.828454 -0.109896 -0.228859
 C 2.320481 -0.104537 -0.029707
 C 2.722230 -0.071953 1.430995
 N 4.157477 -0.172034 1.637817
 C 3.158725 -0.865975 -1.011977
 C 3.160137 0.636638 -1.020428
 H 0.369741 -0.992123 0.229348
 H 0.573228 -0.114641 -1.290713
 H 0.367468 0.776165 0.220057
 H 2.153107 -0.854115 1.959458
 H 2.389326 0.884593 1.849725
 H 4.462935 -1.135328 1.592796
 H 4.411091 0.175158 2.552302
 H 2.646741 -1.387297 -1.812427
 H 4.062773 -1.350988 -0.665003
 H 2.656606 1.147777 -1.832675
 H 4.054081 1.118465 -0.644298