16
charge = 0
 C 1.147974 0.496716 -0.219759
 C 2.394617 -0.330953 -0.072905
 C 2.890967 -0.524718 1.338157
 N 3.302269 0.754271 1.893920
 C 2.697497 -1.362001 -1.082565
 N 3.487621 -0.129819 -1.029192
 H 0.301071 0.015981 0.277989
 H 0.886274 0.629157 -1.272913
 H 1.289721 1.478489 0.236754
 H 3.692421 -1.277457 1.318431
 H 2.078834 -0.927669 1.952907
 H 4.100913 1.095126 1.370542
 H 3.596699 0.650449 2.856247
 H 1.992902 -1.489989 -1.898798
 H 3.234671 -2.262212 -0.801015
 H 3.192358 0.502218 -1.766000