12
charge = 0
 C 0.924382 -0.096431 0.042387
 C 2.405659 -0.035360 0.046138
 C 3.286587 1.010704 0.047648
 N 4.581911 0.566796 0.051291
 C 4.498074 -0.734750 0.051983
 N 3.205281 -1.150955 0.048979
 H 0.516300 0.914344 0.040642
 H 0.532359 -0.610524 0.925579
 H 0.536886 -0.611749 -0.842087
 H 3.050109 2.064333 0.046296
 H 5.328474 -1.425487 0.054596
 H 2.887959 -2.104511 0.048848