12
charge = 0
 C 0.944313 -0.025904 0.163395
 C 2.471063 -0.025436 0.127252
 C 3.103396 1.088702 -0.632841
 N 3.885176 0.685603 -1.556910
 N 3.885701 -0.743538 -1.553471
 C 3.104204 -1.142756 -0.627479
 H 0.570824 0.857965 0.683292
 H 0.571465 -0.907539 0.687530
 H 0.534223 -0.028481 -0.847815
 H 2.857410 -0.022818 1.157540
 H 2.949468 2.147235 -0.452727
 H 2.951046 -2.200523 -0.442276