12
charge = 0
 C 0.892316 -0.047118 -0.058849
 C 2.381871 -0.042219 -0.055154
 C 3.226706 1.043873 -0.052317
 N 4.485461 0.557193 -0.049529
 N 4.531884 -0.771767 -0.050321
 C 3.262256 -1.144211 -0.053725
 H 0.495887 0.969600 -0.059161
 H 0.490568 -0.558068 0.820188
 H 0.494932 -0.556907 -0.940541
 H 3.023677 2.103697 -0.052096
 H 5.344144 1.077618 -0.047047
 H 3.015710 -2.196483 -0.055056