16
charge = 0
 C 1.086184 0.118305 -0.138872
 C 2.574288 0.204936 0.015587
 N 3.446342 -0.722911 -0.706840
 C 3.428326 0.690998 -1.080054
 C 4.695096 1.455314 -0.829879
 N 4.421293 2.881243 -0.710747
 H 0.676005 -0.712887 0.441844
 H 0.810021 -0.032450 -1.186819
 H 0.604956 1.037065 0.206187
 H 2.920229 0.404508 1.027212
 H 2.899109 -1.269152 -1.364425
 H 2.909509 0.951381 -2.003004
 H 5.421511 1.202761 -1.619073
 H 5.121455 1.100807 0.112244
 H 4.092739 3.253129 -1.594175
 H 5.269529 3.384762 -0.484096