16
charge = 0
 C 0.805949 0.021779 -0.185438
 C 2.298850 -0.020550 0.002401
 N 2.805473 0.015057 1.346881
 C 3.124377 -0.846444 -0.949878
 C 3.189960 0.643391 -1.027782
 N 4.411704 1.309583 -0.691203
 H 0.324692 -0.854509 0.262554
 H 0.537936 0.042278 -1.244987
 H 0.377820 0.914430 0.283134
 H 2.565539 -0.832652 1.847263
 H 2.407012 0.792507 1.861118
 H 2.618153 -1.394825 -1.735330
 H 3.990863 -1.344328 -0.529688
 H 2.677317 1.100587 -1.868519
 H 4.762931 0.914383 0.175589
 H 4.227514 2.288702 -0.501825