15
charge = 0
 C 0.987267 0.129331 -0.202686
 C 2.438730 0.048527 0.244362
 N 2.697309 -1.149888 1.047018
 C 3.584283 -0.823500 2.159009
 C 3.487979 0.666522 2.234605
 C 2.859558 1.148805 1.172746
 H 0.728967 -0.729979 -0.826298
 H 0.806198 1.036354 -0.786580
 H 0.327161 0.128911 0.667020
 H 3.074200 0.085900 -0.659989
 H 3.035484 -1.920777 0.491655
 H 4.630961 -1.131956 1.994922
 H 3.256965 -1.309728 3.086956
 H 3.900686 1.245568 3.051145
 H 2.667262 2.194111 0.964416