14
charge = 0
 C 1.055137 0.049391 -0.016816
 C 2.537155 -0.013111 -0.121812
 N 3.212420 -1.096435 -0.111160
 C 4.619433 -0.722354 -0.234535
 C 4.670604 0.827791 -0.325861
 N 3.261103 1.141201 -0.238661
 H 0.658933 -0.959918 0.068048
 H 0.624086 0.531633 -0.898199
 H 0.752749 0.628903 0.859495
 H 5.052341 -1.194595 -1.120991
 H 5.179219 -1.095692 0.627751
 H 5.107617 1.176623 -1.267027
 H 5.238843 1.276220 0.495359
 H 2.872648 2.064044 -0.262391