17
charge = 0
 C 3.014489 -0.599180 -1.106530
 C 2.270174 -0.049243 0.099164
 C 3.039730 -0.204765 1.398718
 C 2.225037 0.130824 2.662844
 C 2.087471 -1.387026 2.860261
 N 3.184906 -1.586686 1.901042
 H 2.435817 -0.473830 -2.024311
 H 3.224823 -1.667329 -0.999320
 H 3.972119 -0.089235 -1.242416
 H 1.294813 -0.542130 0.196397
 H 2.063225 1.016946 -0.051451
 H 4.004152 0.310472 1.307611
 H 1.306863 0.698913 2.510348
 H 2.820634 0.607920 3.440887
 H 1.113892 -1.768004 2.527951
 H 2.288607 -1.780020 3.860474
 H 3.045467 -2.317536 1.213999