17
charge = 0
 C 0.977638 0.744039 0.563819
 C 2.298386 0.119606 0.147053
 C 2.959863 0.655047 -1.108962
 N 4.209822 0.032833 -1.464352
 C 2.141936 1.091828 -2.284848
 C 2.882134 2.108367 -1.461452
 H 0.607281 0.274206 1.477652
 H 0.207889 0.617158 -0.200745
 H 1.078318 1.812636 0.766666
 H 2.156210 -0.960254 0.010165
 H 3.018513 0.223637 0.969033
 H 4.080498 -0.962823 -1.607778
 H 4.883787 0.140444 -0.714138
 H 1.062184 1.069451 -2.208771
 H 2.539661 0.856911 -3.263586
 H 2.299943 2.769298 -0.831854
 H 3.771545 2.548628 -1.893204