17
charge = 0
 C 1.072348 0.359037 0.342801
 C 2.548579 0.543607 0.034961
 C 3.266319 -0.771989 -0.233801
 C 4.721397 -0.596181 -0.562361
 C 5.741636 -0.643512 0.501463
 N 5.642551 -1.723722 -0.479725
 H 0.579418 1.315783 0.529011
 H 0.928643 -0.265960 1.228817
 H 0.553423 -0.125588 -0.488953
 H 3.041084 1.057182 0.867661
 H 2.663201 1.198644 -0.835975
 H 2.768571 -1.293664 -1.061166
 H 3.175573 -1.425925 0.643630
 H 4.918996 0.047645 -1.417180
 H 5.396723 -0.829687 1.514869
 H 6.641004 -0.041300 0.431159
 H 5.169306 -2.521759 -0.067490