15
charge = 0
 C 1.339057 -0.598711 0.835134
 C 2.251883 0.264986 0.414506
 C 3.155366 0.057668 -0.757249
 C 4.614983 0.137613 -0.385950
 C 5.353202 -1.080999 -0.014081
 N 5.629090 -0.402245 -1.281408
 H 0.713889 -0.389875 1.695444
 H 1.180536 -1.547151 0.330601
 H 2.376066 1.204268 0.951084
 H 2.946464 0.822655 -1.517114
 H 2.949841 -0.915559 -1.217088
 H 4.912921 1.073550 0.081521
 H 4.804424 -2.018137 -0.033935
 H 6.156322 -1.038662 0.713367
 H 5.185636 -0.900703 -2.046630