15
charge = 0
 C 0.992225 -0.017899 -0.152757
 C 2.489075 -0.037180 -0.151593
 C 3.196203 -0.615350 -1.117727
 C 3.112333 0.647755 1.008389
 C 3.538280 -0.136968 2.192272
 N 4.519345 0.524106 1.339203
 H 0.595688 -0.487012 0.753091
 H 0.584957 -0.537147 -1.020768
 H 0.618855 1.011226 -0.163114
 H 2.708587 -1.125106 -1.940753
 H 4.280298 -0.592762 -1.137799
 H 2.711395 1.641554 1.200745
 H 3.442253 -1.216361 2.125609
 H 3.431836 0.279419 3.188336
 H 4.962159 -0.159364 0.734555