19
charge = 0
 C 1.067543 0.059451 0.015870
 C 2.586045 0.020660 -0.012137
 C 3.138999 -1.125459 -0.844897
 C 4.657529 -1.173792 -0.873763
 C 5.205220 -2.313719 -1.711277
 N 6.659815 -2.335921 -1.666704
 H 0.697307 0.890294 0.620990
 H 0.657221 -0.864122 0.434128
 H 0.657084 0.173901 -0.991503
 H 2.971233 -0.059948 1.010861
 H 2.970950 0.968973 -0.404948
 H 2.753637 -1.044802 -1.869308
 H 2.752715 -2.074588 -0.452086
 H 5.052564 -1.267719 0.143405
 H 5.043297 -0.223286 -1.265899
 H 4.794706 -2.236245 -2.731853
 H 4.842695 -3.263417 -1.303029
 H 7.035207 -1.488693 -2.076670
 H 7.023824 -3.109060 -2.209200