11
charge = 0
 C 1.146704 0.002661 -1.028152
 C 2.394365 -0.016654 -0.558007
 C 3.135004 1.178680 -0.238886
 C 4.390232 1.169455 0.234449
 C 5.101117 2.356157 0.542053
 N 5.696208 3.310214 0.798248
 H 0.613706 -0.911074 -1.259580
 H 0.622124 0.937689 -1.195077
 H 2.898655 -0.966668 -0.399234
 H 2.636416 2.131464 -0.395415
 H 4.917448 0.235459 0.402402