13
charge = 0
 C 1.517106 0.159390 1.058834
 C 2.325508 -0.139156 0.052498
 C 3.050685 0.863691 -0.781960
 C 4.571776 0.680010 -0.687430
 C 5.296124 1.615288 -1.532673
 N 5.849744 2.363939 -2.207016
 H 1.012636 -0.611828 1.628857
 H 1.324766 1.188989 1.344820
 H 2.490214 -1.185040 -0.202991
 H 2.785338 1.877017 -0.471692
 H 2.754407 0.761417 -1.831322
 H 4.852532 -0.336118 -0.981146
 H 4.904854 0.815202 0.345423