13
charge = 0
 C 1.004608 0.138527 -0.126080
 C 2.487922 0.083336 0.033999
 C 3.133436 -0.298842 1.142438
 C 2.486857 -0.739316 2.419942
 C 4.563178 -0.296129 1.134577
 N 5.715534 -0.305999 1.163209
 H 0.733615 0.482472 -1.123635
 H 0.546141 0.820208 0.596273
 H 0.546144 -0.843495 0.022648
 H 3.092557 0.377155 -0.818163
 H 1.400889 -0.712622 2.342520
 H 2.792285 -0.095572 3.248916
 H 2.792285 -1.757175 2.676007