17
charge = 0
 C 0.834839 -0.240489 0.439621
 C 2.313690 -0.299939 0.612510
 C 3.128107 0.746223 0.602510
 C 4.615879 0.687162 0.758044
 C 5.310060 1.155918 -0.521094
 N 5.006226 1.444709 1.947256
 H 0.513117 -0.828133 -0.426277
 H 0.489532 0.786011 0.301626
 H 0.320468 -0.659609 1.310289
 H 2.744418 -1.289354 0.762676
 H 2.708484 1.743587 0.455433
 H 4.893784 -0.357464 0.939488
 H 5.029262 2.187816 -0.754567
 H 5.038778 0.530167 -1.375206
 H 6.397305 1.121505 -0.404052
 H 4.666296 2.397914 1.874342
 H 6.017044 1.504467 2.002891