13
charge = 0
 C 0.893983 -0.016583 -0.147481
 C 2.378226 -0.114373 -0.201926
 C 3.149944 -0.523813 0.795134
 C 4.644970 -0.629065 0.701947
 C 5.325288 0.159657 1.722676
 N 5.851542 0.778693 2.535858
 H 0.564779 1.009520 -0.337847
 H 0.506302 -0.325729 0.824562
 H 0.431611 -0.642199 -0.917168
 H 2.849470 0.178181 -1.139660
 H 2.707421 -0.811660 1.745571
 H 4.992782 -0.298645 -0.280542
 H 4.968381 -1.669575 0.823485