19
charge = 0
 C 0.936949 -0.113117 0.309351
 C 2.432141 -0.303757 0.087037
 C 2.778289 -1.785700 0.040039
 C 2.924411 0.396911 -1.176477
 C 2.783637 1.907807 -1.168864
 N 3.341467 2.473892 -2.388539
 H 0.603099 -0.648215 1.202190
 H 0.368141 -0.502028 -0.541814
 H 0.668235 0.937634 0.436747
 H 2.960519 0.138270 0.943100
 H 2.272539 -2.274743 -0.798752
 H 2.468832 -2.295969 0.955863
 H 3.853151 -1.941045 -0.085216
 H 2.397373 -0.001598 -2.051521
 H 3.984311 0.149911 -1.321567
 H 3.241629 2.304095 -0.246750
 H 1.725280 2.182231 -1.133786
 H 4.336631 2.289458 -2.437665
 H 3.228455 3.479652 -2.402476