19
charge = 0
 C 1.075951 -0.085105 0.012936
 C 2.599775 -0.040485 0.068359
 C 3.070372 1.406662 -0.058403
 C 3.085882 -0.626313 1.390339
 C 3.142154 -0.870754 -1.102814
 N 4.595349 -0.870861 -1.172808
 H 0.639839 0.479683 0.841361
 H 0.709591 -1.113843 0.082147
 H 0.698068 0.344342 -0.919780
 H 2.638458 2.023580 0.734319
 H 2.768205 1.839118 -1.017867
 H 4.157520 1.480596 0.027102
 H 2.749677 -0.015998 2.233366
 H 4.175729 -0.678415 1.408606
 H 2.696790 -1.638826 1.534379
 H 2.662670 -0.510266 -2.028011
 H 2.814378 -1.906588 -0.965551
 H 4.937764 -0.004605 -1.567950
 H 4.923220 -1.615814 -1.772631