15
charge = 0
 C 0.940224 -0.032298 -0.086195
 C 2.471932 -0.056040 -0.082843
 C 2.993727 -0.561603 1.265759
 C 2.994005 -0.938623 -1.221025
 C 2.961241 1.311572 -0.290057
 N 3.345031 2.383725 -0.452633
 H 0.564175 -1.046643 0.066904
 H 0.554408 0.339754 -1.036819
 H 0.555380 0.603470 0.713003
 H 2.636426 -1.580742 1.431567
 H 2.639239 0.066506 2.084746
 H 4.084785 -0.570204 1.286549
 H 2.635616 -1.960844 -1.078283
 H 4.085108 -0.954336 -1.237783
 H 2.640693 -0.580795 -2.189599