19
charge = 0
 C 0.959292 -0.143421 -0.120564
 C 2.469015 0.044302 -0.084256
 C 2.893279 1.140316 -1.054513
 C 2.955257 0.296433 1.352508
 C 4.463678 0.123610 1.497076
 N 2.464272 1.583980 1.835046
 H 0.608734 -0.322204 -1.140470
 H 0.458907 0.747313 0.265685
 H 0.650673 -0.994048 0.493513
 H 2.939333 -0.892771 -0.408698
 H 2.404890 2.087989 -0.810269
 H 2.599149 0.880841 -2.074351
 H 3.974344 1.301201 -1.059146
 H 2.473133 -0.465389 1.977466
 H 5.008065 0.873910 0.916156
 H 4.790375 -0.864147 1.158670
 H 4.764274 0.236088 2.542250
 H 2.998452 2.339609 1.420895
 H 2.596378 1.655886 2.836211