11
charge = 0
 C 1.032431 0.070005 0.021503
 C 2.565978 0.074073 -0.057989
 C 3.072079 -0.941402 -0.977020
 C 3.463457 -1.791778 -1.724752
 C 3.061020 1.403477 -0.427248
 N 3.421968 2.460690 -0.695199
 H 0.690801 -0.914009 0.342240
 H 0.601530 0.290789 -0.954643
 H 0.692472 0.819507 0.736629
 H 2.969823 -0.139145 0.939734
 H 3.818140 -2.542008 -2.391853