17
charge = 0
 C 2.349133 -1.256196 0.806755
 C 3.107388 -0.293500 -0.100787
 C 3.205822 1.081362 0.472457
 C 4.335495 1.728628 0.732690
 C 4.412207 3.103762 1.307185
 N 5.225264 3.103001 2.516952
 H 2.260247 -2.243972 0.348609
 H 1.338615 -0.891568 1.010617
 H 2.859164 -1.371561 1.766007
 H 2.594520 -0.243264 -1.069493
 H 4.112200 -0.677420 -0.301064
 H 2.259282 1.576683 0.694528
 H 5.292534 1.246946 0.537615
 H 3.391357 3.492172 1.446300
 H 4.906045 3.766301 0.585935
 H 4.774073 2.554275 3.238714
 H 5.335975 4.042833 2.875991