13
charge = 0
 C 0.786936 -0.102546 -0.280014
 C 2.278145 -0.101946 0.044692
 C 2.679657 1.078717 0.854034
 C 3.262273 1.013976 2.052128
 C 3.623612 2.170946 2.794469
 N 3.924149 3.096069 3.412860
 H 0.529305 -0.959145 -0.905604
 H 0.499906 0.803761 -0.818766
 H 0.187384 -0.153761 0.631105
 H 2.845759 -0.087019 -0.893931
 H 2.555928 -1.021849 0.566720
 H 2.467443 2.058715 0.431669
 H 3.489402 0.058383 2.515427