19
charge = 0
 C 1.432003 -0.113281 0.385440
 C 2.862054 0.399932 0.338538
 C 3.197741 1.236666 -0.893573
 C 2.349050 2.495361 -0.996850
 C 4.684990 1.578180 -0.903515
 N 5.082484 2.217237 -2.149051
 H 1.275384 -0.759738 1.252149
 H 1.193828 -0.696126 -0.509348
 H 0.708806 0.702235 0.451096
 H 3.549086 -0.453133 0.381541
 H 3.065701 0.997769 1.236236
 H 3.001251 0.615302 -1.780937
 H 2.430116 3.086691 -0.078059
 H 1.293498 2.264191 -1.152662
 H 2.691573 3.115127 -1.826602
 H 5.257079 0.663213 -0.680422
 H 4.888396 2.280168 -0.086197
 H 5.045501 1.552597 -2.912727
 H 6.036248 2.550000 -2.094466