15
charge = 0
 C 1.086801 0.085584 -0.114394
 C 2.603748 0.064146 -0.039265
 C 3.117024 -0.642143 1.204613
 C 4.644592 -0.656533 1.267117
 C 5.152908 -1.329044 2.451846
 N 5.535908 -1.864226 3.394641
 H 0.740284 0.597636 -1.014367
 H 0.656379 0.601111 0.748292
 H 0.678263 -0.928365 -0.130336
 H 2.988668 1.090326 -0.057852
 H 3.010334 -0.429294 -0.929640
 H 2.747458 -1.671867 1.229452
 H 2.726057 -0.151785 2.101401
 H 5.036725 0.365473 1.260290
 H 5.058149 -1.158118 0.386403