19
charge = 0
 C 0.941105 -0.158850 0.108593
 C 2.459417 -0.114255 0.077878
 C 3.003635 1.199568 -0.459399
 C 4.518647 1.251803 -0.488726
 N 4.999878 2.501094 -1.037840
 C 6.440666 2.609880 -1.031542
 H 0.574964 -1.111528 0.498189
 H 0.522577 -0.026411 -0.893013
 H 0.535884 0.636097 0.741192
 H 2.837778 -0.938921 -0.537182
 H 2.851799 -0.285318 1.087029
 H 2.625486 2.025321 0.158202
 H 2.625755 1.376276 -1.472235
 H 4.899093 0.438992 -1.119932
 H 4.912446 1.058509 0.527601
 H 4.594421 3.272835 -0.522334
 H 6.866965 1.859712 -1.703999
 H 6.898961 2.460441 -0.038761
 H 6.741414 3.591847 -1.402540