14
charge = 0
 C 0.985879 0.107613 0.070160
 C 2.469540 0.040249 0.136582
 C 3.296185 1.019161 -0.216939
 C 4.771463 0.920074 -0.145978
 N 5.400798 2.131818 0.015583
 N 5.473302 -0.139499 -0.260889
 H 0.590921 -0.680505 -0.579090
 H 0.641397 1.070446 -0.310582
 H 0.542631 -0.053942 1.057798
 H 2.897311 -0.887724 0.513220
 H 2.889179 1.967056 -0.563875
 H 4.904781 2.851963 0.511912
 H 6.384727 2.064268 0.222322
 H 4.881906 -0.932178 -0.489613