14
charge = 0
 C 1.108003 0.287278 0.383586
 C 2.527961 0.031189 -0.012203
 C 3.137074 -1.123954 0.250975
 C 3.226928 1.120324 -0.753531
 N 4.600182 1.081561 -0.721129
 N 2.647338 2.033923 -1.430915
 H 0.722903 -0.533016 0.989361
 H 0.462089 0.379872 -0.495239
 H 1.013679 1.217125 0.950422
 H 2.623306 -1.918163 0.781114
 H 4.147026 -1.326681 -0.083704
 H 5.027450 0.744106 0.124163
 H 5.035249 1.895782 -1.125313
 H 1.641812 1.900374 -1.434387