12
charge = 0
 C 1.037617 -0.042972 0.029850
 C 2.484393 -0.082029 -0.026152
 C 3.687408 -0.137133 -0.081494
 C 5.102051 -0.118391 -0.115996
 N 5.780892 -1.143454 -0.466839
 N 7.118643 -1.019502 -0.534357
 H 0.600253 -0.445314 -0.887574
 H 0.678496 0.981708 0.153024
 H 0.660134 -0.634725 0.868233
 H 5.596729 0.819120 0.167144
 H 7.580605 -1.909665 -0.449854
 H 7.539599 -0.285443 0.027405