17
charge = 0
 C 0.962507 -0.567400 -0.358324
 C 2.477561 -0.559387 -0.247356
 C 2.961005 0.093183 1.033421
 N 4.408019 0.130938 1.096597
 C 4.982043 0.245440 2.418710
 C 5.044166 -1.033060 1.676927
 H 0.634556 -1.040339 -1.286358
 H 0.559285 0.449157 -0.345042
 H 0.504437 -1.114047 0.471020
 H 2.918718 -0.027751 -1.095742
 H 2.861026 -1.584614 -0.292452
 H 2.533060 -0.437231 1.904228
 H 2.597373 1.125868 1.081216
 H 4.298203 0.292487 3.263680
 H 5.860677 0.875926 2.503285
 H 4.400585 -1.837848 2.026928
 H 5.968980 -1.354923 1.210552