17
charge = 0
 C 1.001875 -0.053872 -0.048963
 C 2.518414 0.040200 -0.048964
 C 3.132536 -1.176634 0.635452
 N 2.947772 0.324240 -1.417627
 C 4.332221 0.199814 -1.797226
 C 3.315764 -0.747952 -2.313160
 H 0.616488 -0.172004 0.966513
 H 0.673549 -0.916526 -0.636320
 H 0.563630 0.842424 -0.490067
 H 2.807593 0.928968 0.524796
 H 2.785306 -2.111679 0.188304
 H 2.831641 -1.190023 1.685273
 H 4.224594 -1.167991 0.613311
 H 5.046193 -0.193269 -1.078259
 H 4.717221 0.993997 -2.428943
 H 3.361218 -1.763291 -1.929935
 H 2.946096 -0.661103 -3.329675