19
charge = 0
 C 0.990840 0.107813 0.263092
 C 2.503046 0.060779 0.130648
 C 2.958297 -0.579191 -1.166940
 N 4.400428 -0.586608 -1.282640
 C 4.885263 -1.228952 -2.486134
 C 6.398747 -1.265786 -2.516799
 H 0.687685 0.571582 1.204163
 H 0.556758 -0.895526 0.233518
 H 0.541207 0.685074 -0.549691
 H 2.927770 -0.497789 0.974022
 H 2.922776 1.069682 0.187876
 H 2.554775 -0.009323 -2.013139
 H 2.522467 -1.593445 -1.246860
 H 4.802241 -1.044556 -0.471698
 H 4.513157 -0.656740 -3.343651
 H 4.486528 -2.253314 -2.605134
 H 6.809695 -0.256767 -2.444053
 H 6.759722 -1.723356 -3.440356
 H 6.794807 -1.851796 -1.681714