19
charge = 0
 C 1.009999 0.218885 -0.109310
 C 2.510183 0.057312 0.081595
 C 2.904045 0.305939 1.538354
 N 2.975674 -1.211850 -0.475277
 C 4.398333 -1.249073 -0.702456
 C 2.525907 -2.393457 0.220435
 H 0.704861 1.237523 0.141266
 H 0.442570 -0.455728 0.537026
 H 0.733291 0.016385 -1.145497
 H 2.998117 0.826159 -0.529493
 H 2.392054 -0.385885 2.212599
 H 2.627603 1.319768 1.837902
 H 3.979976 0.197895 1.693974
 H 4.707211 -0.373324 -1.278657
 H 4.651616 -2.139791 -1.283980
 H 5.002933 -1.279413 0.222099
 H 1.442387 -2.378153 0.346474
 H 2.985440 -2.527947 1.215411
 H 2.774010 -3.276155 -0.374955