17
charge = 0
 C 1.059052 0.145486 0.254505
 C 2.491357 -0.119771 -0.198483
 C 2.769831 -1.620961 -0.316717
 N 2.606044 -2.290922 0.964038
 C 2.775533 0.557941 -1.501161
 C 3.701663 1.484335 -1.703906
 H 0.841186 -0.410963 1.166909
 H 0.348420 -0.175592 -0.513798
 H 0.896676 1.209916 0.435668
 H 3.180858 0.287869 0.553144
 H 3.767104 -1.755220 -0.761811
 H 2.049904 -2.055646 -1.019603
 H 3.354002 -2.030200 1.595597
 H 2.653651 -3.295117 0.851338
 H 2.148530 0.247190 -2.337573
 H 4.344304 1.827704 -0.898485
 H 3.850494 1.937251 -2.677463