14
charge = 0
 C 0.611965 0.246317 0.452408
 C 2.048281 0.292046 0.035431
 C 2.866917 1.281776 0.400549
 N 2.414634 -0.786424 -0.767418
 C 3.649090 -1.381065 -0.925159
 N 4.755817 -1.145960 -0.359133
 H 0.342606 1.137820 1.016175
 H 0.412341 -0.634663 1.069766
 H -0.044969 0.189814 -0.422549
 H 2.492515 2.067418 1.042276
 H 3.885950 1.368290 0.052100
 H 1.652008 -1.278817 -1.201290
 H 3.604229 -2.187346 -1.660989
 H 4.680136 -0.401617 0.329544