14
charge = 0
 C 0.932041 0.055919 -0.030649
 C 2.402182 0.170263 0.181438
 C 2.891778 0.443866 1.571185
 N 3.153955 0.026277 -0.843637
 N 4.507844 0.148636 -0.552296
 C 5.235064 0.003299 -1.579173
 H 0.432148 0.978392 0.283040
 H 0.521881 -0.746818 0.591151
 H 0.707337 -0.142697 -1.077316
 H 2.057369 0.525051 2.268221
 H 3.474366 1.366772 1.597084
 H 3.563426 -0.349976 1.903668
 H 6.311681 0.080643 -1.459186
 H 4.809419 -0.194735 -2.565230