16
charge = 0
 C 1.059181 0.043453 0.189134
 C 2.550042 -0.202166 0.320119
 C 2.936432 -0.601755 1.731399
 N 2.915737 -1.253766 -0.618775
 N 4.228048 -1.518658 -0.720522
 C 4.673274 -2.067188 -1.775194
 H 0.744756 0.835144 0.871024
 H 0.498454 -0.862858 0.432837
 H 0.788976 0.352883 -0.825067
 H 3.082424 0.727079 0.063240
 H 2.376598 -1.488082 2.041297
 H 2.718662 0.211322 2.427754
 H 4.000717 -0.831081 1.785826
 H 2.419371 -1.201971 -1.505483
 H 5.727254 -2.313645 -1.815537
 H 4.040263 -2.312301 -2.634941