16
charge = 0
 C 1.780848 -1.161260 -0.718313
 C 2.784029 -0.072889 -0.352227
 C 2.761995 0.264617 1.098728
 N 3.796071 0.144361 1.824863
 N 3.739781 0.531793 3.122254
 C 4.676371 -0.151838 3.980428
 H 1.790829 -1.358271 -1.792595
 H 0.762500 -0.871450 -0.444509
 H 2.012023 -2.094695 -0.200008
 H 2.559927 0.830245 -0.934199
 H 3.799659 -0.377982 -0.613670
 H 1.813557 0.627027 1.523130
 H 2.796706 0.574436 3.500764
 H 5.680259 -0.028100 3.573341
 H 4.476395 -1.227489 4.082544
 H 4.645140 0.307595 4.970057