17
charge = 0
 C 1.314019 -0.151977 0.083108
 C 2.800000 0.135560 0.034662
 N 3.241608 0.792139 1.249075
 C 4.467589 1.557782 1.149204
 C 3.157830 2.238648 1.267310
 C 2.705081 2.900142 2.533505
 H 0.990926 -0.678252 -0.817986
 H 0.737951 0.774028 0.157203
 H 1.072342 -0.769124 0.950674
 H 3.037777 0.741357 -0.857790
 H 3.360277 -0.800481 -0.059601
 H 4.967277 1.589424 0.183200
 H 5.131260 1.503919 2.006818
 H 2.797322 2.698776 0.346029
 H 3.107922 2.373396 3.400397
 H 1.614551 2.893731 2.611353
 H 3.041677 3.939743 2.572538