17
charge = 0
 C 2.888082 -0.763749 0.870155
 C 2.326898 0.242393 -0.113880
 N 3.246811 1.344063 -0.312105
 C 2.712832 2.576693 -0.848499
 C 3.191838 2.513990 0.552480
 C 2.239197 2.658786 1.706232
 H 2.221328 -1.623768 0.966903
 H 3.011510 -0.320060 1.860840
 H 3.865470 -1.117755 0.536597
 H 1.327270 0.570238 0.211275
 H 2.190261 -0.232933 -1.090704
 H 1.633831 2.639058 -0.985170
 H 3.297746 3.059988 -1.625124
 H 4.182151 2.917179 0.753714
 H 2.155072 3.713817 1.979502
 H 1.235831 2.303403 1.470050
 H 2.595392 2.118766 2.587834