17
charge = 0
 C 1.149039 0.733340 -0.373661
 C 2.336382 -0.192381 -0.534632
 N 3.478352 0.289096 0.219459
 C 4.625123 -0.556443 0.138678
 C 5.589377 -0.308583 -0.979403
 C 5.958196 0.051999 0.429154
 H 0.298538 0.382434 -0.961877
 H 1.402634 1.744893 -0.697475
 H 0.828511 0.784836 0.671428
 H 2.631691 -0.241042 -1.587775
 H 2.047887 -1.218838 -0.246973
 H 3.217103 0.430292 1.188661
 H 4.496667 -1.602311 0.430490
 H 5.349399 0.506960 -1.649884
 H 6.075406 -1.159493 -1.439890
 H 5.963379 1.104268 0.683774
 H 6.697316 -0.550819 0.941627