17
charge = 0
 C 1.099826 0.277955 -0.132275
 C 2.591353 0.021444 0.058199
 N 3.169737 -0.840400 -0.965604
 C 3.348408 1.330246 0.156049
 C 4.837179 1.379381 0.055078
 C 3.994390 1.965689 -1.038314
 H 0.542403 -0.662149 -0.162424
 H 0.922922 0.809440 -1.072706
 H 0.689497 0.888178 0.677445
 H 2.730896 -0.502098 1.012406
 H 2.859951 -0.546753 -1.885293
 H 2.847750 -1.791686 -0.843079
 H 2.901428 2.024380 0.861561
 H 5.336226 0.445402 -0.171272
 H 5.376341 2.051980 0.710732
 H 3.978523 1.429796 -1.979232
 H 3.941660 3.042994 -1.135160