16
charge = 0
 C 0.866174 -0.271559 0.039734
 C 2.351453 0.044726 -0.030407
 N 2.955807 -0.207851 1.271268
 C 3.011937 -0.809037 -1.094833
 C 4.415707 -1.242672 -0.998016
 N 3.326839 -2.201115 -0.810181
 H 0.358398 0.382056 0.754719
 H 0.711724 -1.308401 0.348979
 H 0.393696 -0.133603 -0.934458
 H 2.461518 1.095688 -0.341655
 H 2.329732 0.069847 2.014976
 H 3.814077 0.313955 1.389596
 H 2.602443 -0.646093 -2.089373
 H 4.986179 -0.952593 -0.121516
 H 5.002354 -1.377701 -1.900395
 H 3.208584 -2.332127 0.193351