19
charge = 0
 C 1.219261 -0.502203 -0.492853
 C 2.720057 -0.410300 -0.312398
 N 3.306510 0.466383 -1.305918
 C 4.720365 0.757828 -1.122564
 C 5.570326 -0.458354 -1.455718
 C 5.097285 1.934832 -2.004188
 H 0.779388 -1.186103 0.235974
 H 0.973895 -0.858452 -1.495553
 H 0.745075 0.474860 -0.356915
 H 3.156487 -1.407660 -0.422259
 H 2.950762 -0.083162 0.718408
 H 2.791055 1.339302 -1.315632
 H 4.927096 1.035698 -0.071080
 H 5.391290 -0.768268 -2.488690
 H 5.347171 -1.304475 -0.802925
 H 6.631393 -0.224949 -1.339891
 H 4.909842 1.695862 -3.054370
 H 6.153968 2.185011 -1.889822
 H 4.514451 2.824950 -1.748605