17
charge = 0
 C 1.037194 0.297389 0.098289
 C 2.549435 0.225639 0.101701
 N 3.019756 -0.931896 -0.631101
 C 4.464245 -1.021595 -0.708327
 C 4.884881 -2.245913 -1.450313
 C 5.690496 -2.248575 -2.502731
 H 0.686569 1.153180 0.678987
 H 0.608076 -0.611902 0.523886
 H 0.650537 0.408433 -0.919295
 H 2.912736 0.137893 1.132054
 H 2.966946 1.170109 -0.292066
 H 2.634382 -0.924100 -1.568917
 H 4.842813 -1.078409 0.321055
 H 4.933242 -0.132036 -1.164571
 H 4.472169 -3.181220 -1.078603
 H 6.105430 -1.326725 -2.899691
 H 5.971294 -3.168862 -3.001857