15
charge = 0
 C 1.551085 0.760267 0.094282
 C 3.017101 0.450956 -0.119924
 N 3.335749 -0.889704 0.327059
 C 4.722214 -1.243019 0.089151
 C 4.990923 -2.637980 0.402422
 C 5.207388 -3.794217 0.638987
 H 1.320808 1.781820 -0.214892
 H 1.283519 0.645687 1.146395
 H 0.917485 0.087083 -0.490756
 H 3.630656 1.150823 0.459108
 H 3.282054 0.613555 -1.180602
 H 2.733610 -1.563580 -0.131304
 H 5.354520 -0.607661 0.720887
 H 5.041901 -1.053189 -0.951986
 H 5.400868 -4.817532 0.857982