14
charge = 0
 C 1.040908 0.090872 -0.352373
 C 2.536735 0.034509 -0.132485
 N 2.844483 -0.461579 1.195981
 C 4.266293 -0.582908 1.425349
 C 4.548001 -1.138800 2.744074
 N 4.773011 -1.600253 3.771946
 H 0.811531 0.493784 -1.340578
 H 0.564511 0.721480 0.400402
 H 0.595684 -0.906359 -0.290638
 H 2.962464 1.040552 -0.218996
 H 3.009428 -0.572980 -0.924455
 H 2.392779 -1.355635 1.349036
 H 4.722009 0.412050 1.374026
 H 4.792843 -1.206952 0.681702