16
charge = 0
 C 1.052384 0.644380 -0.008873
 C 0.630069 -0.520041 -0.891562
 N 1.664108 -0.996173 -1.785898
 C 2.786904 -1.700965 -1.232166
 N 1.805334 -0.263216 -2.890711
 C 2.864883 -0.327619 -3.600604
 H 0.220188 0.968443 0.621011
 H 1.366469 1.491526 -0.622345
 H 1.880957 0.370974 0.649678
 H -0.210667 -0.226620 -1.522354
 H 0.302455 -1.364469 -0.277219
 H 2.477434 -2.188433 -0.308336
 H 3.637088 -1.036134 -1.015491
 H 3.135273 -2.473559 -1.925070
 H 2.879360 0.264773 -4.507386
 H 3.734371 -0.940956 -3.368163