14
charge = 0
 C 0.938780 -0.527009 -0.725889
 C 2.166997 -0.024919 -0.024932
 N 3.368047 -0.367284 -0.280420
 N 1.976713 0.887797 0.984358
 C 0.793001 1.411800 1.446736
 C 0.678872 2.298366 2.435299
 H 1.224947 -1.238756 -1.498146
 H 0.388303 0.291715 -1.196379
 H 0.260807 -1.026271 -0.028909
 H 3.395053 -1.040842 -1.037906
 H 2.836504 1.189702 1.419083
 H -0.091716 1.047460 0.938687
 H 1.541282 2.685174 2.966275
 H -0.296880 2.654746 2.731062