12
charge = 0
 C 1.016995 -0.099811 -0.106196
 C 2.515922 -0.091649 -0.032241
 N 3.176539 -0.077618 1.069358
 N 2.482761 -0.109621 2.220644
 C 3.258269 -0.111310 -1.246373
 C 3.819866 -0.123686 -2.310518
 H 0.611218 -0.956198 0.442812
 H 0.678820 -0.155990 -1.138421
 H 0.591846 0.809507 0.336549
 H 3.045558 0.196935 2.996607
 H 1.545258 0.276053 2.218881
 H 4.338548 -0.136710 -3.239502