16
charge = 0
 C 1.175645 0.228719 -0.080343
 N 2.616835 0.178075 -0.013344
 C 3.272789 -0.734079 -0.927950
 C 3.336113 0.730366 -1.136659
 C 4.573648 1.531344 -0.860514
 N 4.242553 2.932261 -0.638586
 H 0.753095 -0.555195 0.552806
 H 0.785364 0.093701 -1.102546
 H 0.832888 1.195342 0.294803
 H 2.650216 -1.309628 -1.609954
 H 4.130852 -1.268068 -0.530770
 H 2.722481 1.107268 -1.957780
 H 5.289870 1.368934 -1.682876
 H 5.031320 1.137379 0.050468
 H 3.947659 3.367135 -1.504803
 H 5.055062 3.443446 -0.318241