12
charge = 0
 C 1.093736 0.153626 -0.087595
 N 2.539207 0.095573 -0.051132
 C 3.185191 -0.688048 -1.068738
 C 3.218819 0.800289 -1.121880
 C 4.405579 1.539517 -0.784548
 N 5.359810 2.133695 -0.541954
 H 0.693689 -0.698312 0.465084
 H 0.686620 0.128890 -1.110277
 H 0.757441 1.069249 0.401459
 H 2.565594 -1.174382 -1.819077
 H 4.072735 -1.229886 -0.763376
 H 2.606579 1.271389 -1.887766