13
charge = 0
 C 0.920693 0.070754 -0.035103
 N 2.359701 0.053302 -0.030129
 C 3.167090 1.152764 -0.027173
 C 4.473164 0.731609 -0.022690
 C 4.452564 -0.682704 -0.022965
 C 3.135300 -1.068556 -0.027603
 H 0.577583 1.104394 -0.036171
 H 0.519639 -0.425587 0.851897
 H 0.525787 -0.425380 -0.924972
 H 2.745265 2.145623 -0.028498
 H 5.342283 1.370524 -0.019578
 H 5.303637 -1.345750 -0.020102
 H 2.687684 -2.050204 -0.029303