12
charge = 0
 C 1.071842 -0.051515 -0.075287
 N 2.509245 -0.005513 -0.070462
 C 3.300808 1.085856 -0.069683
 C 4.600366 0.634906 -0.064491
 C 4.477278 -0.762453 -0.062463
 N 3.207277 -1.140126 -0.066112
 H 0.685761 0.966719 -0.078233
 H 0.709349 -0.572828 0.811943
 H 0.715382 -0.575675 -0.963286
 H 2.888036 2.082418 -0.072825
 H 5.498857 1.229429 -0.062481
 H 5.256589 -1.509906 -0.058510