14
charge = 0
 C 1.122865 0.088730 -0.231389
 N 2.526231 0.023489 0.012690
 C 3.332565 -1.185013 0.062072
 C 4.739755 -0.631390 0.354440
 C 4.463541 0.849366 0.417863
 N 3.235196 1.141780 0.222970
 H 0.749451 -0.926244 -0.375128
 H 0.887336 0.665951 -1.133206
 H 0.578052 0.532884 0.609924
 H 3.290289 -1.730613 -0.888116
 H 2.982402 -1.865122 0.847606
 H 5.458756 -0.878841 -0.431012
 H 5.151898 -1.009712 1.293698
 H 5.191962 1.625346 0.605800