12
charge = 0
 C 1.031531 0.060498 0.068404
 N 2.473454 0.069479 0.072398
 C 3.286642 1.171178 0.075486
 C 4.564717 0.687588 0.078707
 N 4.555883 -0.677500 0.077621
 C 3.290854 -1.011969 0.073854
 H 0.669994 1.087361 0.068029
 H 0.642955 -0.442742 0.955918
 H 0.647885 -0.441652 -0.821867
 H 2.886745 2.172107 0.075123
 H 5.486130 1.249332 0.081707
 H 2.903709 -2.021079 0.072010