14
charge = 0
 C 1.149575 0.083962 -0.251407
 N 2.558445 0.045359 0.008566
 C 3.362928 -1.159718 0.093912
 C 4.764121 -0.566118 0.385956
 N 4.608502 0.891291 0.433204
 C 3.373275 1.114634 0.215726
 H 0.783707 -0.935782 -0.372949
 H 0.911331 0.629499 -1.171907
 H 0.586974 0.537943 0.572637
 H 3.329783 -1.726088 -0.844221
 H 3.006623 -1.818757 0.894302
 H 5.489721 -0.832910 -0.387484
 H 5.168343 -0.923019 1.337348
 H 2.945952 2.114202 0.188807