16
charge = 0
 C 1.190262 0.452847 -0.202805
 N 2.431280 0.001971 0.390175
 C 2.961671 -1.186183 -0.201774
 C 4.225091 -1.786671 0.425199
 N 3.697378 -3.124557 0.119176
 C 2.332278 -2.588824 0.024020
 H 0.841506 1.351051 0.310433
 H 0.378710 -0.292017 -0.179333
 H 1.364460 0.718152 -1.249245
 H 2.317356 -0.129406 1.387888
 H 3.106037 -1.010020 -1.271425
 H 4.267574 -1.553106 1.499986
 H 5.191183 -1.548561 -0.026427
 H 3.847484 -3.831459 0.826502
 H 1.770444 -2.608596 0.970855
 H 1.718074 -3.030112 -0.765615