17
charge = 0
 C 0.898025 -0.243857 -0.167080
 N 2.273316 0.145474 -0.364453
 C 2.545313 0.413320 -1.757727
 C 2.637829 1.261605 0.486267
 C 4.113782 1.487142 0.534474
 C 4.706980 2.655144 0.335282
 H 0.671713 -1.122165 -0.776049
 H 0.180637 0.551654 -0.442327
 H 0.729023 -0.504506 0.880345
 H 2.343040 -0.481050 -2.351380
 H 3.594055 0.683423 -1.891094
 H 1.927727 1.238238 -2.159725
 H 2.290180 1.023745 1.499023
 H 2.127650 2.197506 0.186807
 H 4.709362 0.607087 0.768141
 H 4.134923 3.544895 0.089539
 H 5.782016 2.767866 0.415459