15
charge = 0
 C 0.895594 0.148027 0.060799
 N 2.328553 0.003269 -0.032166
 C 2.699561 -1.322789 -0.470334
 C 2.887902 1.035971 -0.883222
 C 4.344274 1.060391 -0.880215
 C 5.543477 1.096661 -0.896901
 H 0.496343 -0.602115 0.746256
 H 0.384933 0.024943 -0.912572
 H 0.643122 1.135407 0.454715
 H 2.312482 -2.060768 0.235118
 H 3.786213 -1.413633 -0.500349
 H 2.303657 -1.565873 -1.473875
 H 2.523954 2.005568 -0.527281
 H 2.541812 0.937559 -1.931542
 H 6.607233 1.128693 -0.905240