17
charge = 0
 C 0.951287 -0.223952 -0.101344
 N 2.363186 0.040418 0.077190
 C 2.901522 1.083856 -0.786472
 C 2.345339 2.448448 -0.396663
 C 4.393318 1.077199 -0.660977
 C 5.235897 0.880374 -1.664519
 H 0.680236 -1.120897 0.458509
 H 0.655881 -0.373486 -1.153795
 H 0.352328 0.597179 0.298167
 H 2.887161 -0.809617 -0.087966
 H 2.645104 0.899601 -1.846563
 H 2.579928 2.665850 0.648297
 H 1.261203 2.488568 -0.519242
 H 2.781956 3.227184 -1.024514
 H 4.773067 1.245735 0.345392
 H 4.880134 0.703785 -2.675316
 H 6.309753 0.894336 -1.516995