15
charge = 0
 C 0.952684 -0.066410 0.000855
 N 2.394078 0.012363 0.067374
 C 2.927796 1.073776 -0.767397
 C 4.381646 1.047095 -0.824949
 C 5.581472 1.009446 -0.888336
 C 7.030327 0.971850 -0.953292
 H 0.603434 -0.911550 0.596447
 H 0.553682 -0.174476 -1.022281
 H 0.516192 0.840706 0.429155
 H 2.811489 -0.867289 -0.208115
 H 2.598279 2.033830 -0.351081
 H 2.532731 1.039217 -1.799964
 H 7.374395 0.544541 -1.898517
 H 7.440586 0.366395 -0.141156
 H 7.451458 1.976556 -0.865364