17
charge = 0
 C 0.894238 -0.060016 -0.060754
 N 2.338656 -0.049080 0.000109
 C 2.874349 1.171053 0.563040
 C 4.396460 1.151465 0.574409
 C 4.980277 2.345852 1.251002
 C 5.788931 3.229531 0.683186
 H 0.550394 -0.976733 -0.543973
 H 0.459941 0.798885 -0.599849
 H 0.486384 -0.049873 0.954095
 H 2.721553 -0.188756 -0.927141
 H 2.505063 1.257139 1.592276
 H 2.525528 2.076383 0.034078
 H 4.774922 1.089962 -0.452200
 H 4.714836 0.237122 1.088719
 H 4.700543 2.485294 2.294599
 H 6.094870 3.131952 -0.354249
 H 6.179065 4.078518 1.232564