15
charge = 0
 C 1.158996 0.125498 -0.051359
 N 2.592833 -0.046231 -0.137298
 C 2.980740 -1.389635 -0.501931
 C 4.498725 -1.492866 -0.614904
 C 4.944085 -2.819606 -1.001957
 C 5.291669 -3.922627 -1.324267
 H 0.928026 1.138961 0.282054
 H 0.661823 -0.584760 0.629918
 H 0.716229 -0.004549 -1.042691
 H 3.019666 0.202018 0.747275
 H 2.534295 -1.624377 -1.473386
 H 2.615538 -2.156033 0.203082
 H 4.956716 -1.228770 0.345971
 H 4.850753 -0.753619 -1.340917
 H 5.605516 -4.898076 -1.611191