16
charge = 0
 C 1.121425 0.066318 -0.270763
 N 2.531912 -0.081914 -0.023728
 C 3.288881 1.034556 0.493380
 C 3.118496 -1.294249 -0.291495
 C 4.590410 -1.397521 -0.017004
 N 2.519425 -2.328445 -0.749602
 H 0.809969 1.076163 -0.010296
 H 0.527849 -0.634932 0.328733
 H 0.873673 -0.101446 -1.326215
 H 2.621086 1.883973 0.627526
 H 4.086532 1.349402 -0.187363
 H 3.741777 0.817212 1.466220
 H 4.818740 -1.208840 1.035259
 H 5.162703 -0.679162 -0.609818
 H 4.908991 -2.404210 -0.274521
 H 1.528521 -2.162384 -0.903284