14
charge = 0
 C 0.840859 0.128673 -0.304788
 N 2.256756 0.011716 -0.040053
 C 2.523946 -0.234193 1.360649
 C 2.849603 -0.991844 -0.892643
 C 4.308386 -0.999229 -0.808209
 N 5.455186 -1.024691 -0.743009
 H 0.424386 0.930980 0.306380
 H 0.281768 -0.797300 -0.078749
 H 0.675229 0.381637 -1.354390
 H 2.111196 0.582635 1.954706
 H 3.600472 -0.271131 1.535929
 H 2.079825 -1.180211 1.718847
 H 2.578870 -0.784147 -1.932057
 H 2.497516 -2.016882 -0.666503