12
charge = 0
 C 1.087937 0.205040 -0.054102
 N 2.527664 0.175460 -0.030384
 C 3.230434 -0.582146 0.834140
 C 4.554783 -0.489872 1.085731
 C 5.192297 -1.381596 1.971794
 N 5.729604 -2.102354 2.697743
 H 0.735872 0.432251 -1.061515
 H 0.665794 0.943339 0.637841
 H 0.702727 -0.778400 0.218816
 H 3.008592 0.944079 -0.467873
 H 2.647721 -1.345841 1.341098
 H 5.172065 0.264437 0.609810