14
charge = 0
 C 2.632305 1.066880 -0.901973
 N 2.303408 -0.021695 -0.002610
 C 2.863652 0.099509 1.324228
 C 2.396327 -1.040173 2.217805
 C 4.341781 0.168457 1.315765
 N 5.490267 0.204674 1.256352
 H 2.175692 0.876259 -1.874024
 H 3.711549 1.219089 -1.046831
 H 2.207961 1.996887 -0.514416
 H 2.577644 -0.909852 -0.405374
 H 2.513295 1.049693 1.744458
 H 2.736691 -2.000727 1.824588
 H 1.306684 -1.041196 2.250497
 H 2.789274 -0.930574 3.229156