14
charge = 0
 C 1.373193 -0.238605 -0.295308
 N 2.802003 -0.059635 -0.142393
 C 3.154166 1.223643 0.415915
 C 4.662987 1.294928 0.637622
 C 5.075016 2.557583 1.226464
 N 5.382290 3.561925 1.693841
 H 1.173507 -1.201734 -0.767831
 H 0.884401 0.548142 -0.892053
 H 0.900124 -0.249768 0.690109
 H 3.258359 -0.180168 -1.038816
 H 2.647081 1.330392 1.379579
 H 2.834547 2.078723 -0.203152
 H 5.193249 1.171672 -0.312509
 H 4.976288 0.475113 1.289241