18
charge = 0
 C 0.995039 -0.014240 0.181252
 N 2.437526 0.033886 0.099937
 C 2.920493 0.417704 -1.208456
 C 4.435032 0.460790 -1.241478
 N 4.917945 0.845216 -2.549714
 C 6.360449 0.892291 -2.631401
 H 0.690832 -0.367747 1.168496
 H 0.522844 -0.660340 -0.578012
 H 0.588273 0.993021 0.052844
 H 2.823034 -0.869191 0.348247
 H 2.525875 1.418160 -1.429606
 H 2.563752 -0.243193 -2.017152
 H 4.829680 -0.539763 -1.020832
 H 4.791780 1.121310 -0.432473
 H 4.533087 1.748793 -2.797208
 H 6.766468 -0.115399 -2.504004
 H 6.833376 1.537368 -1.871724
 H 6.664633 1.246434 -3.618424