16
charge = 0
 C 2.789383 -1.018886 -0.447284
 N 2.287556 0.108165 0.288016
 C 3.117421 0.951716 0.961432
 C 2.437496 2.083187 1.681682
 N 4.374980 0.737218 0.940239
 C 5.235908 1.639603 1.658030
 H 1.950965 -1.547326 -0.901765
 H 3.334921 -1.705061 0.206783
 H 3.481931 -0.700995 -1.231867
 H 1.302525 0.283671 0.309903
 H 1.353762 2.065161 1.558390
 H 2.809001 3.042519 1.313854
 H 2.662291 2.040188 2.749975
 H 6.271993 1.317813 1.539029
 H 5.027414 1.666376 2.737455
 H 5.174744 2.675051 1.292717