14
charge = 0
 C 1.069465 -0.636173 0.272054
 N 2.498219 -0.582580 0.166328
 C 3.162691 -0.879405 -0.984421
 N 2.628520 -1.235491 -2.094494
 C 4.635501 -0.785857 -0.962923
 C 5.408865 -0.439125 0.058528
 H 0.775691 -0.358346 1.283652
 H 0.684196 -1.643026 0.072514
 H 0.583730 0.057938 -0.423827
 H 3.028624 -0.316523 0.973358
 H 1.613431 -1.276794 -2.030005
 H 5.074192 -1.041774 -1.920859
 H 5.027309 -0.172631 1.039299
 H 6.486246 -0.406802 -0.048805