14
charge = 0
 C 1.017095 -0.168334 0.598376
 N 2.286941 -0.079233 0.647919
 N 3.017768 -1.192653 0.649999
 C 4.312786 -1.243334 1.319428
 C 4.074790 -2.749576 1.543367
 C 2.604342 -2.500111 1.166575
 H 0.451090 0.754408 0.560051
 H 0.478160 -1.117443 0.569651
 H 4.324771 -0.666912 2.251588
 H 5.161522 -0.947770 0.698760
 H 4.258004 -3.122073 2.548920
 H 4.596252 -3.376135 0.821254
 H 1.937701 -2.404137 2.036257
 H 2.143279 -3.169168 0.435856