10
charge = 0
 C 1.404591 0.665028 0.169538
 N 2.633699 0.377191 0.046626
 N 3.028656 -0.608728 0.941618
 C 4.268336 -0.884985 0.804491
 C 4.896453 -1.864474 1.612738
 C 5.492223 -2.681726 2.262590
 H 0.994256 1.426867 -0.485978
 H 0.765354 0.173187 0.904372
 H 4.873369 -0.367843 0.055945
 H 6.002163 -3.409808 2.848770