16
charge = 0
 C 1.401716 0.949660 -0.014494
 N 2.797479 0.642287 0.047369
 N 3.247390 -0.064817 1.084532
 C 4.490778 -0.355153 1.167283
 C 5.495598 0.065589 0.138151
 C 4.948463 -1.148557 2.345625
 H 1.213731 1.527939 -0.920469
 H 1.077143 1.546298 0.845228
 H 0.786116 0.044127 -0.053217
 H 3.419367 0.956292 -0.679246
 H 5.247322 -0.336299 -0.852541
 H 6.496114 -0.281853 0.394608
 H 5.537144 1.158082 0.041369
 H 4.102856 -1.373126 2.995068
 H 5.701615 -0.602283 2.924973
 H 5.413169 -2.091206 2.034551