17
charge = 0
 N 1.068800 0.008394 -0.091097
 C 2.495952 0.048846 0.158214
 C 3.046965 1.172270 1.040088
 C 4.463287 0.708991 1.364683
 C 4.370996 -0.832963 1.447204
 C 2.993169 -1.203845 0.875659
 H 0.762446 0.850605 -0.562894
 H 0.564018 -0.038050 0.787576
 H 2.992175 0.110637 -0.819529
 H 2.439484 1.228360 1.952399
 H 3.009598 2.153652 0.559621
 H 4.857408 1.155913 2.279391
 H 5.140196 1.001230 0.556698
 H 4.476271 -1.183907 2.475747
 H 5.177326 -1.300272 0.878042
 H 2.291401 -1.433875 1.686065
 H 3.012387 -2.075106 0.219235