16
charge = 0
 N 3.388441 -0.052617 0.923516
 C 2.334777 0.050406 -0.075545
 C 2.864540 0.658132 -1.339663
 C 1.923424 1.314034 -2.310910
 C 2.869508 2.154550 -1.522843
 N 3.911179 2.870727 -2.198813
 H 3.040121 -0.481884 1.771529
 H 3.721768 0.871052 1.172670
 H 1.462090 0.639782 0.253795
 H 1.965383 -0.960752 -0.279334
 H 3.712341 0.134752 -1.772388
 H 0.868956 1.351082 -2.063247
 H 2.125611 1.192656 -3.369284
 H 2.420123 2.725079 -0.712925
 H 4.078137 2.485482 -3.118921
 H 4.782790 2.819608 -1.685659