13
charge = 0
 N 0.892521 0.032449 -0.092117
 C 2.043139 0.033043 -0.073932
 C 3.488893 0.033754 -0.016577
 C 4.198194 1.108857 0.843628
 C 5.218904 0.032674 1.256204
 C 4.199452 -1.043341 0.840090
 H 3.882936 0.035660 -1.035965
 H 3.566967 1.409629 1.680776
 H 4.554486 1.999008 0.326006
 H 5.559031 0.031165 2.291254
 H 6.091901 0.034262 0.600432
 H 3.568590 -1.347592 1.676257
 H 4.556778 -1.931369 0.319545