16
charge = 0
 N 2.795096 -0.805481 -1.301970
 C 2.404179 -0.037100 -0.132856
 C 2.907992 -0.619853 1.174035
 N 2.469496 0.059290 2.362297
 C 3.089779 -2.099453 1.316985
 C 4.285398 -1.193027 1.236057
 H 2.716346 -0.247507 -2.141010
 H 2.193721 -1.609800 -1.423554
 H 1.312676 0.095290 -0.039927
 H 2.827339 0.969297 -0.234627
 H 1.457159 0.072469 2.417915
 H 2.786120 1.022473 2.362654
 H 2.894924 -2.736534 0.463292
 H 2.841862 -2.523584 2.281347
 H 4.850424 -1.213010 0.312843
 H 4.846469 -1.018538 2.144937