17
charge = 0
 N 0.750280 -0.004874 0.136709
 C 2.158999 -0.015912 -0.229490
 C 3.008745 -0.520266 0.923763
 C 4.470657 -0.602906 0.583674
 C 5.344410 0.609288 0.704184
 C 5.504621 -0.532404 1.663250
 H 0.180133 0.301108 -0.641609
 H 0.589587 0.651532 0.891818
 H 2.544137 0.964184 -0.552758
 H 2.278458 -0.693444 -1.081858
 H 2.631383 -1.500466 1.233687
 H 2.880819 0.147531 1.785987
 H 4.703237 -1.266991 -0.244475
 H 4.888540 1.519684 1.076900
 H 6.118145 0.769565 -0.036358
 H 5.157511 -0.390521 2.680201
 H 6.386827 -1.154307 1.575986