16
charge = 0
 N 0.919778 0.039764 0.069815
 C 2.314208 -0.208784 -0.261455
 C 3.186587 -0.085588 0.976395
 C 4.628710 -0.406930 0.708384
 C 5.580080 0.656325 0.332200
 N 5.666355 0.013610 1.642338
 H 0.329308 -0.093924 -0.741176
 H 0.793718 0.999738 0.368441
 H 2.712581 0.453550 -1.046242
 H 2.389582 -1.230531 -0.648001
 H 2.788158 -0.750418 1.750252
 H 3.117413 0.937194 1.371422
 H 4.804627 -1.401983 0.304609
 H 5.196384 1.671323 0.275793
 H 6.406657 0.445495 -0.337672
 H 5.263643 0.617167 2.352287