11
charge = 0
 N 0.996570 0.059720 0.121474
 C 2.454766 0.031659 0.036488
 C 2.996197 -1.136659 -0.674764
 C 3.393384 -2.119276 -1.237653
 C 2.950046 1.271967 -0.562477
 C 3.353936 2.285972 -1.057255
 H 0.672223 -0.817750 0.511743
 H 0.608920 0.130455 -0.812468
 H 2.834868 -0.006625 1.065704
 H 3.752224 -2.984533 -1.743358
 H 3.711857 3.188070 -1.494335