15
charge = 0
 N 2.124883 -1.099185 0.894983
 C 2.382293 -0.034638 -0.070304
 C 2.771538 -0.602000 -1.407024
 C 1.929791 -0.576940 -2.442802
 C 4.098511 -1.191758 -1.563841
 C 5.078109 -1.179761 -0.660234
 H 1.976311 -0.710000 1.817756
 H 2.922045 -1.720181 0.955614
 H 3.165179 0.671918 0.250554
 H 1.463852 0.545013 -0.190075
 H 0.940694 -0.142151 -2.358305
 H 2.208018 -0.993435 -3.405166
 H 4.281686 -1.671389 -2.522731
 H 4.965460 -0.709918 0.311011
 H 6.038327 -1.634378 -0.871126