13
charge = 0
 N 2.647616 -0.813549 1.159523
 C 2.325398 -0.167028 -0.104107
 C 2.862177 -0.958846 -1.267914
 C 2.084472 -1.429512 -2.243552
 C 4.272985 -1.164092 -1.280070
 C 5.466822 -1.311085 -1.236182
 H 2.367444 -0.223704 1.933195
 H 3.650998 -0.940793 1.232501
 H 2.721654 0.858252 -0.187951
 H 1.238837 -0.105111 -0.201795
 H 1.012192 -1.274365 -2.218617
 H 2.497577 -1.974869 -3.082815
 H 6.521718 -1.451797 -1.219605