18
charge = 0
 N 0.961371 0.055463 -0.083157
 C 2.416536 0.039909 -0.053931
 C 2.961580 -1.028728 -0.982127
 C 4.479492 -1.065464 -1.022319
 C 5.024525 -2.133968 -1.950673
 N 6.479686 -2.149637 -1.921316
 H 0.598884 0.785896 0.516517
 H 0.595313 -0.820804 0.270423
 H 2.837917 -0.112893 0.953235
 H 2.768970 1.020509 -0.391800
 H 2.555237 -0.857725 -1.984675
 H 2.582950 -2.008079 -0.660362
 H 4.885837 -1.236619 -0.019798
 H 4.858117 -0.086061 -1.343943
 H 4.603241 -1.980932 -2.957843
 H 4.671972 -3.114600 -1.613014
 H 6.845810 -1.273130 -2.274239
 H 6.842192 -2.879647 -2.521497