10
charge = 0
 N 0.907538 0.049004 0.071701
 C 2.056440 0.041779 0.083909
 C 3.509830 0.047695 0.075090
 C 4.054613 0.811468 -1.141216
 C 5.507980 0.817236 -1.150310
 N 6.656873 0.809554 -1.138110
 H 3.868079 -0.984492 0.065397
 H 3.867722 0.505062 1.000600
 H 3.696507 1.843703 -1.131428
 H 3.696556 0.354220 -2.066722