16
charge = 0
 N 1.316441 -0.697015 0.105701
 C 2.644276 -0.099200 0.170048
 C 3.028006 0.451860 -1.162779
 C 4.128371 0.123009 -1.828710
 C 4.512103 0.674089 -3.161527
 N 5.839839 1.272123 -3.097071
 H 1.019468 -1.010375 1.021138
 H 1.328820 -1.507204 -0.501832
 H 3.433937 -0.781975 0.518561
 H 2.594526 0.723052 0.894095
 H 2.321134 1.155772 -1.600012
 H 4.835234 -0.580914 -1.391481
 H 3.722365 1.356738 -3.510110
 H 4.562049 -0.148165 -3.885558
 H 5.827292 2.082213 -2.489407
 H 6.136748 1.585701 -4.012456