14
charge = 0
 N 1.109639 0.499339 -0.251522
 C 2.312309 -0.164104 0.240102
 C 2.746443 -1.218696 -0.664085
 C 3.072570 -2.108630 -1.403764
 C 3.500240 -3.177430 -2.294030
 N 3.067385 -4.485198 -1.812508
 H 0.774853 1.159717 0.439464
 H 0.376863 -0.184122 -0.397487
 H 2.201833 -0.606331 1.243197
 H 3.107855 0.584922 0.319575
 H 4.589786 -3.088768 -2.430636
 H 3.052171 -3.011212 -3.279675
 H 3.432775 -4.646465 -0.881994
 H 3.439978 -5.211321 -2.412246