16
charge = 0
 N 0.997339 -0.105711 0.218128
 C 2.449564 -0.036564 0.164498
 C 2.943930 1.125404 1.003902
 N 4.386822 1.229379 0.946125
 C 5.011225 1.942423 2.038136
 C 5.110642 0.469338 1.944877
 H 0.662401 -0.939209 -0.247085
 H 0.588687 0.683591 -0.268027
 H 2.864645 0.064620 -0.848782
 H 2.850448 -0.967154 0.578700
 H 2.572089 1.006117 2.035233
 H 2.523550 2.060956 0.616085
 H 4.363523 2.344377 2.814065
 H 5.857070 2.568330 1.774878
 H 4.526949 -0.110002 2.657208
 H 6.030328 -0.000105 1.613259