14
charge = 0
 N 1.068066 -2.556020 -0.060941
 C 2.336831 -2.527451 0.004696
 N 3.046953 -1.380059 -0.185105
 C 4.392521 -1.239022 0.251691
 C 5.463555 -1.988017 -0.482208
 C 5.344955 -0.504530 -0.637382
 H 0.727945 -3.504083 0.056575
 H 2.980140 -3.395836 0.187989
 H 2.483139 -0.544555 -0.243857
 H 4.543586 -1.113643 1.322794
 H 5.149149 -2.601448 -1.316733
 H 6.288421 -2.385756 0.094812
 H 4.948601 -0.133722 -1.574148
 H 6.088228 0.128343 -0.170064