12
charge = 0
 N 1.119217 0.007358 0.363611
 C 2.366111 -0.159960 -0.171981
 N 2.759101 -1.073122 -0.964013
 C 3.349210 0.950228 0.156309
 C 3.204281 1.526463 1.481172
 C 3.058304 1.996709 2.576484
 H 0.478691 -0.766113 0.311056
 H 1.042823 0.585191 1.185646
 H 2.017845 -1.743406 -1.163664
 H 3.219195 1.738883 -0.593664
 H 4.351208 0.542526 0.016379
 H 2.950593 2.418334 3.547984