12
charge = 0
 N 1.012950 0.134503 -0.090906
 N 2.394207 0.005015 -0.061426
 C 3.237526 1.064660 -0.205752
 C 4.522091 0.590714 -0.127691
 C 4.443754 -0.809684 0.071441
 C 3.114455 -1.144430 0.108497
 H 0.623414 -0.193688 0.784940
 H 0.636362 -0.426447 -0.845925
 H 2.838103 2.054821 -0.349860
 H 5.419105 1.184604 -0.205176
 H 5.269234 -1.496539 0.176026
 H 2.619098 -2.093630 0.239341