14
charge = 0
 N 1.105036 -1.718214 0.898430
 N 2.388476 -1.717123 0.438635
 C 3.175315 -0.808975 0.842604
 C 4.584132 -0.740567 0.413431
 C 5.156443 -1.783508 -0.492030
 C 4.912796 -0.411284 -1.026223
 H 0.498903 -2.181415 0.240004
 H 0.744910 -0.804977 1.161439
 H 2.823502 -0.017534 1.518530
 H 5.251767 -0.309766 1.152033
 H 4.480323 -2.570461 -0.799164
 H 6.179646 -2.091541 -0.317776
 H 4.070877 -0.275122 -1.693773
 H 5.762474 0.232367 -1.219129