14
charge = 0
 N 0.808363 -1.355545 0.050143
 N 2.167217 -1.373169 0.088667
 C 2.809213 -0.843564 -0.867377
 C 4.302309 -0.769118 -0.848909
 C 4.917288 -1.536493 -1.978915
 C 5.648908 -1.006207 -2.948672
 H 0.429225 -2.115791 0.591610
 H 0.401586 -1.305184 -0.879807
 H 2.292518 -0.428822 -1.743683
 H 4.640550 -1.168843 0.111681
 H 4.622311 0.277663 -0.907929
 H 4.720320 -2.606853 -1.983219
 H 5.863987 0.057876 -2.978349
 H 6.065406 -1.614241 -3.743429