12
charge = 0
 C 0.384303 1.415123 0.490631
 C 0.840382 0.360352 -0.455248
 O 0.888530 -0.971115 0.002199
 C -0.390303 -1.326311 0.303139
 C -1.303803 -0.397377 0.024986
 C -0.603713 0.805605 -0.480342
 H 0.736030 2.417436 0.279725
 H 0.277042 1.165015 1.539070
 H 1.574917 0.566742 -1.221901
 H -0.501257 -2.313791 0.727173
 H -2.369886 -0.502147 0.153800
 H -1.027741 1.411458 -1.271832