14
charge = 0
 C 0.333791 0.795119 -0.123127
 C -0.727654 -0.237306 0.107567
 C 0.696320 -0.654918 -0.105916
 C 1.472407 -1.222995 1.030006
 C 2.678178 -0.586732 1.552822
 O 1.445591 -0.501185 2.251332
 H 0.632241 1.386362 0.733634
 H 0.354098 1.313147 -1.073508
 H -1.443637 -0.431651 -0.680928
 H -1.119959 -0.320398 1.113757
 H 0.926021 -1.116051 -1.061640
 H 1.378325 -2.301136 1.161476
 H 3.017353 0.342636 1.101513
 H 3.444625 -1.186421 2.037492