14
charge = 0
 C 0.225348 -0.122998 1.389709
 C 0.291991 0.767827 0.144492
 C -1.177747 0.977825 -0.233008
 C -1.622459 -0.502157 -0.112139
 C -0.262731 -1.078267 0.295261
 O 0.639168 -0.412232 -0.629249
 H -0.449183 0.146272 2.204998
 H 1.216609 -0.391302 1.751592
 H 0.990503 1.596099 0.034946
 H -1.274607 1.366508 -1.246951
 H -1.698493 1.650106 0.451728
 H -1.961685 -0.920041 -1.060208
 H -2.395147 -0.668343 0.641078
 H -0.137877 -2.159107 0.341631