14
charge = 0
 C 0.785271 1.374051 0.240503
 C -0.699217 1.243174 -0.132939
 C -0.968091 -0.233618 -0.022559
 O -0.449989 -0.820653 1.167567
 C 0.301423 -0.953576 -0.035408
 C 1.429051 0.036206 -0.154480
 H 0.876395 1.515508 1.317591
 H 1.263938 2.226728 -0.243323
 H -0.882388 1.553199 -1.167690
 H -1.348661 1.842100 0.510087
 H -1.893520 -0.667822 -0.389751
 H 0.398103 -1.967429 -0.412947
 H 1.773249 0.047154 -1.194569
 H 2.286146 -0.219244 0.473297