12
charge = 0
 C 0.961003 -1.050955 0.011924
 C -0.481686 -1.475477 0.072295
 C -1.315000 -0.441687 -0.026666
 C -0.545080 0.826973 -0.099429
 O 0.257326 1.061145 1.065506
 C 0.873348 0.457408 -0.058719
 H 1.467040 -1.460359 -0.869553
 H 1.527216 -1.382183 0.888947
 H -0.780279 -2.507250 0.215998
 H -2.395986 -0.492572 -0.013442
 H -0.927117 1.718719 -0.584576
 H 1.653725 1.043637 -0.534106