14
charge = 0
 C 0.419686 1.289082 -0.090111
 C -1.059277 1.052824 0.156166
 C -1.378020 -0.395526 -0.040906
 C -0.418276 -1.311226 -0.080037
 C 1.018911 -0.960762 0.130610
 O 1.209123 0.349318 0.604475
 H 0.733833 2.273573 0.261295
 H 0.628374 1.230191 -1.169524
 H -1.650278 1.669575 -0.529937
 H -1.331898 1.369806 1.170040
 H -2.417021 -0.685450 -0.164863
 H -0.648255 -2.356735 -0.262809
 H 1.583237 -1.116333 -0.805881
 H 1.462851 -1.623637 0.879762