12
charge = 0
 C 1.488659 -0.263298 0.110272
 C 0.424470 -1.313321 0.017719
 C -0.860239 -1.018424 -0.123408
 O -1.370234 0.243145 -0.200981
 C -0.457862 1.252746 -0.123842
 C 0.849973 1.088383 0.017260
 H 2.235143 -0.395702 -0.685152
 H 2.052037 -0.362931 1.048436
 H 0.698743 -2.360299 0.066360
 H -1.646252 -1.759056 -0.192417
 H -0.941593 2.218309 -0.193177
 H 1.467246 1.977427 0.065531