14
charge = 0
 C 0.697589 1.158602 -0.244255
 C -0.734626 1.158995 0.242513
 O -1.412475 0.000521 -0.192685
 C -0.735547 -1.158802 0.241685
 C 0.696667 -1.159199 -0.245085
 O 1.374519 -0.000723 0.190103
 H 1.243372 2.016487 0.154876
 H 0.712326 1.211730 -1.343700
 H -1.279727 2.017603 -0.155996
 H -0.749321 1.211337 1.341996
 H -1.281333 -2.016690 -0.157435
 H -0.750283 -1.211916 1.341131
 H 0.711360 -1.211551 -1.344568
 H 1.241770 -2.017803 0.153430