12
charge = 0
 C 0.304775 1.342447 0.145513
 C 1.340619 0.275499 -0.139187
 O 0.953273 -0.957598 0.434210
 C -0.365590 -1.221464 0.215740
 C -1.242195 -0.316925 -0.216980
 O -0.938088 0.993870 -0.431666
 H 0.602063 2.300444 -0.283894
 H 0.184150 1.456496 1.229874
 H 2.306131 0.542708 0.293150
 H 1.453563 0.153998 -1.223565
 H -0.644222 -2.245489 0.418954
 H -2.273677 -0.564017 -0.423250