12
charge = 0
 C 0.728468 1.293971 -0.611261
 C -0.324340 0.947603 0.400336
 O -1.303361 0.038925 -0.031934
 C -0.732304 -1.231036 0.174847
 O 0.651154 -1.096801 -0.048015
 C 0.961206 0.200604 0.389785
 H 1.269772 2.223653 -0.477444
 H 0.543451 0.989971 -1.633718
 H -0.632267 1.635932 1.178080
 H -1.147502 -1.935344 -0.547124
 H -0.920171 -1.568940 1.206475
 H 1.721184 0.268353 1.158773