14
charge = 0
 C 0.922458 0.098744 -0.000421
 C 2.423034 0.066867 0.027787
 C 3.194254 -0.746531 -0.938081
 C 3.196135 0.761856 -1.075327
 C 4.420175 1.480649 -0.703676
 O 4.811237 2.497207 -1.212785
 H 0.505695 -0.723097 0.587674
 H 0.548546 0.000341 -1.022340
 H 0.537690 1.035594 0.409255
 H 2.866015 0.162008 1.015533
 H 2.652732 -1.292402 -1.701018
 H 4.113853 -1.216673 -0.609183
 H 2.629231 1.201364 -1.887663
 H 4.993534 1.002984 0.126135