16
charge = 0
 C 0.942632 0.119046 -0.216437
 C 2.407325 0.028472 0.122612
 C 2.705783 -0.146123 1.587559
 C 3.313222 -0.656433 -0.872016
 C 3.351625 0.835174 -0.708264
 O 4.437086 1.432310 -0.072134
 H 0.420127 -0.799711 0.067134
 H 0.786706 0.272104 -1.287084
 H 0.469897 0.950653 0.314835
 H 2.293756 -1.091863 1.951579
 H 2.256513 0.662335 2.171888
 H 3.778341 -0.136679 1.779870
 H 2.883675 -1.073112 -1.775979
 H 4.155860 -1.206187 -0.467993
 H 2.908588 1.437221 -1.500379
 H 5.199884 1.361592 -0.651792