14
charge = 0
 C 1.000576 0.135237 0.053577
 C 2.469136 -0.024258 -0.026494
 C 3.235743 -1.109865 0.029624
 C 4.676784 -0.712464 -0.101430
 C 4.557344 0.815220 -0.247275
 O 3.158740 1.139990 -0.184655
 H 0.515378 -0.831817 0.179393
 H 0.617512 0.609629 -0.854097
 H 0.731447 0.779948 0.894759
 H 2.875645 -2.119870 0.151933
 H 5.160824 -1.168272 -0.971240
 H 5.270786 -0.993428 0.774347
 H 4.941620 1.178544 -1.203025
 H 5.061775 1.356598 0.556103