16
charge = 0
 C 0.956520 -0.013009 0.314144
 C 2.383568 0.206097 -0.112776
 C 3.196271 1.265236 0.641806
 C 4.079687 0.089192 1.075569
 C 5.513725 0.087734 0.617020
 O 3.262945 -0.841884 0.339351
 H 0.327751 0.818111 -0.018232
 H 0.884989 -0.091403 1.401776
 H 0.564572 -0.934188 -0.123221
 H 2.437950 0.299601 -1.204505
 H 2.656541 1.769515 1.443695
 H 3.696595 2.006920 0.018740
 H 4.029304 -0.131415 2.149053
 H 5.580317 0.322699 -0.448138
 H 5.965885 -0.893088 0.781402
 H 6.092699 0.829282 1.175127