12
charge = 0
 C 0.937299 -0.004750 -0.095262
 C 2.425102 -0.039420 -0.091346
 C 3.275217 1.016046 -0.089441
 O 4.565612 0.605112 -0.085941
 C 4.542463 -0.744018 -0.085581
 C 3.268409 -1.197340 -0.088764
 H 0.567733 1.021905 -0.096531
 H 0.525841 -0.507495 0.784212
 H 0.530462 -0.508008 -0.976590
 H 3.117607 2.082462 -0.090184
 H 5.501622 -1.235077 -0.082920
 H 2.956622 -2.230527 -0.089253