14
charge = 0
 C 0.972684 0.045835 0.260290
 C 2.279984 0.105456 0.057322
 C 3.143990 1.335842 -0.004716
 C 4.396442 0.801937 -0.687498
 O 4.509901 -0.533323 -0.235618
 C 3.200836 -1.065409 -0.192831
 H 0.379767 0.941008 0.409920
 H 0.445475 -0.901956 0.287081
 H 3.387495 1.673323 1.007970
 H 2.670562 2.163005 -0.535649
 H 5.312922 1.327662 -0.417548
 H 4.284409 0.830156 -1.781880
 H 3.161727 -1.820779 0.595460
 H 2.949305 -1.551457 -1.147813