12
charge = 0
 C 1.119788 -0.069595 0.075880
 C 2.585039 0.174061 -0.136116
 C 3.285671 1.210243 0.744266
 C 4.059791 0.012516 1.256864
 O 4.923911 -0.206264 2.036891
 O 3.408689 -0.880767 0.462332
 H 0.539533 0.757320 -0.341047
 H 0.889739 -0.153977 1.140448
 H 0.806262 -0.990444 -0.419272
 H 2.834818 0.250922 -1.196507
 H 2.663538 1.692096 1.498700
 H 3.899933 1.953891 0.238162