16
charge = 0
 C 0.872326 -0.053720 0.089367
 C 2.378741 -0.124351 0.048583
 C 3.192316 0.864854 0.888219
 O 3.985305 -0.191173 1.443912
 C 3.098426 -1.185947 0.896829
 C 3.826846 -2.309253 0.215068
 H 0.502418 0.839143 -0.421925
 H 0.509083 -0.022711 1.120399
 H 0.420873 -0.921748 -0.398947
 H 2.736462 -0.154165 -0.984692
 H 2.601352 1.375894 1.660048
 H 3.801999 1.601480 0.357415
 H 2.445234 -1.581963 1.689316
 H 4.473399 -1.924824 -0.577033
 H 3.113569 -3.013229 -0.223167
 H 4.446251 -2.855588 0.930418