14
charge = 0
 C 1.054327 0.179252 0.175809
 C 2.539013 -0.025183 0.076675
 C 3.142495 -0.785694 -1.067850
 O 2.270188 -1.315458 -2.012686
 C 3.343742 0.687711 -0.976609
 O 4.634851 1.131972 -0.707124
 H 0.573367 -0.670449 0.666589
 H 0.607017 0.278142 -0.813706
 H 0.820321 1.078276 0.752209
 H 3.060758 -0.170412 1.018149
 H 4.013836 -1.394551 -0.835064
 H 2.692818 -1.263900 -2.874273
 H 2.774534 1.288752 -1.685677
 H 4.578944 1.869843 -0.093852