16
charge = 0
 C 0.986838 0.164780 -0.142148
 C 2.478208 0.284117 -0.104712
 O 3.221208 -0.394077 -1.111560
 C 3.303243 1.032535 -1.060618
 C 2.707720 1.756673 -2.234603
 C 4.638294 1.557267 -0.608925
 H 0.682305 -0.820511 0.220244
 H 0.591197 0.287955 -1.149514
 H 0.529376 0.915187 0.508476
 H 2.905326 0.164264 0.893122
 H 1.769830 1.308117 -2.557451
 H 3.402249 1.726744 -3.078693
 H 2.527719 2.806607 -1.988319
 H 5.021110 0.971076 0.227508
 H 4.560728 2.602567 -0.297976
 H 5.363468 1.502997 -1.425730