12
charge = 0
 C 0.878319 0.040317 -0.046958
 C 2.361580 0.169323 0.084220
 O 3.157762 -0.638552 -0.764023
 C 3.185947 0.770463 -0.973253
 C 4.411124 1.461345 -0.681747
 C 5.426737 2.060595 -0.457631
 H 0.532074 -0.872003 0.444801
 H 0.584933 -0.003623 -1.097091
 H 0.377656 0.889423 0.424763
 H 2.750948 0.247386 1.098425
 H 2.680371 1.095593 -1.880935
 H 6.330959 2.584122 -0.254360