14
charge = 0
 C 1.021227 -0.059759 -0.072497
 C 2.495108 0.143239 0.073460
 O 3.338794 -0.739121 -0.663648
 C 3.335296 0.636824 -1.011395
 C 4.618324 1.377778 -0.758497
 O 4.441235 2.777964 -0.782685
 H 0.692616 -0.927640 0.504498
 H 0.755842 -0.223809 -1.118411
 H 0.478435 0.815145 0.294374
 H 2.849303 0.330835 1.087334
 H 2.849184 0.855505 -1.965098
 H 5.377571 1.055958 -1.484238
 H 4.989640 1.122033 0.236154
 H 4.290554 3.054238 -1.689740