14
charge = 0
 C 0.929782 0.093519 -0.233912
 C 2.420795 -0.024345 -0.149642
 O 2.941620 0.091440 1.148661
 C 3.185256 -0.893098 -1.114248
 C 3.314462 0.608353 -1.165961
 O 4.483547 1.214039 -0.741276
 H 0.440147 -0.751281 0.261033
 H 0.600805 0.106862 -1.275033
 H 0.593481 1.015237 0.246622
 H 2.918017 -0.771311 1.571078
 H 2.636809 -1.408200 -1.894280
 H 4.048242 -1.420879 -0.724391
 H 2.854604 1.132047 -1.997555
 H 4.500034 1.122135 0.220494