12
charge = 0
 C 1.055526 -0.009823 0.199964
 C 2.538948 -0.162163 -0.006067
 O 3.331225 0.885133 0.594903
 C 4.107528 -0.017424 1.392327
 C 3.280975 -1.175693 0.859675
 O 3.215921 -2.347527 1.049058
 H 0.693392 0.882957 -0.313392
 H 0.814739 0.077064 1.261020
 H 0.535389 -0.879288 -0.208173
 H 2.782771 -0.272570 -1.071379
 H 4.020554 0.173764 2.467096
 H 5.165543 -0.042601 1.107479