12
charge = 0
 C 0.842907 0.025760 0.210524
 C 2.257100 0.028666 -0.281405
 O 2.531697 -1.113893 -1.083215
 C 3.384372 -0.645031 -2.054085
 C 3.377039 0.679004 -2.067406
 O 2.519099 1.157822 -1.106068
 H 0.669199 -0.855674 0.829372
 H 0.154534 0.013568 -0.635285
 H 0.659412 0.917325 0.811785
 H 2.985383 0.041057 0.549611
 H 3.883584 -1.366991 -2.677224
 H 3.868283 1.393778 -2.704995