14
charge = 0
 C 2.514499 1.202503 0.049694
 C 2.179108 -0.034643 0.386987
 C 3.109340 -1.002069 1.018497
 C 2.675077 -1.676276 2.332462
 C 2.965920 -2.979995 1.591598
 O 3.137956 -2.281475 0.350382
 H 1.798577 1.890048 -0.385373
 H 3.524069 1.572635 0.200498
 H 1.167135 -0.397237 0.217467
 H 4.118331 -0.572366 1.070929
 H 1.620212 -1.524421 2.562208
 H 3.275419 -1.453561 3.213171
 H 2.157489 -3.714181 1.539266
 H 3.888688 -3.484561 1.900425