12
charge = 0
 C 1.057399 -0.029423 0.105685
 C 2.251644 0.058586 0.021552
 C 3.691544 0.191515 -0.084902
 C 4.385124 1.234548 0.812350
 C 5.230209 0.050408 1.281846
 O 4.425367 -0.878407 0.538089
 H -0.000702 -0.116999 0.182170
 H 3.966759 0.280197 -1.143565
 H 3.728658 1.650445 1.573946
 H 4.903498 2.036437 0.289982
 H 5.214806 -0.167589 2.352674
 H 6.266806 0.054682 0.928662