14
charge = 0
 C 1.999337 1.242088 -0.249872
 C 2.430580 0.094709 0.256902
 C 3.126922 -0.964849 -0.510107
 C 4.430270 -1.546184 0.068953
 O 3.937276 -2.887034 -0.024032
 C 2.629373 -2.415203 -0.365401
 H 1.495270 1.980254 0.362840
 H 2.136298 1.483478 -1.299535
 H 2.273945 -0.110352 1.315615
 H 3.237191 -0.670789 -1.555407
 H 4.625061 -1.254747 1.108316
 H 5.337025 -1.395963 -0.523592
 H 1.916321 -2.561831 0.455084
 H 2.240531 -2.890287 -1.270353