16
charge = 0
 C 3.172037 -1.166208 0.417334
 C 2.337616 -0.012827 -0.117952
 C 3.154899 1.225537 -0.334680
 O 2.446431 2.442863 -0.526046
 C 3.237589 2.302693 0.648797
 C 4.423538 3.205945 0.771101
 H 2.564430 -2.063671 0.548700
 H 3.616555 -0.918734 1.384757
 H 3.987302 -1.417640 -0.266560
 H 1.519760 0.224681 0.568831
 H 1.873339 -0.296735 -1.068781
 H 4.007703 1.108036 -1.006630
 H 2.642750 2.182238 1.555461
 H 4.971180 3.252169 -0.171897
 H 5.100159 2.848572 1.551996
 H 4.110502 4.219412 1.034778