14
charge = 0
 C 1.176113 0.701160 0.314284
 C 2.101685 0.172717 -0.473195
 C 3.133975 -0.815715 -0.037900
 C 4.534405 -0.321515 -0.283860
 C 5.330930 0.300183 0.766340
 O 5.580193 -1.035419 0.351985
 H 0.450646 1.413042 -0.061874
 H 1.106233 0.435085 1.364624
 H 2.131819 0.468160 -1.520916
 H 3.004002 -1.752343 -0.595222
 H 3.017589 -1.053338 1.022727
 H 4.755748 -0.041953 -1.314455
 H 4.903653 0.405146 1.761071
 H 6.105208 1.018899 0.509880