14
charge = 0
 C 0.935842 0.030719 -0.182061
 C 2.429000 0.113559 -0.178523
 C 3.217019 -0.761404 0.435581
 C 2.992003 1.264843 -0.927181
 C 3.602210 2.409776 -0.242957
 O 4.392204 1.450171 -0.920524
 H 0.489477 0.936241 0.242010
 H 0.586000 -0.826645 0.393273
 H 0.550637 -0.061450 -1.202974
 H 2.802888 -1.595906 0.989813
 H 4.294903 -0.661423 0.393022
 H 2.522664 1.462373 -1.892219
 H 3.674486 2.384352 0.841523
 H 3.570755 3.396085 -0.700263