12
charge = 0
 C 1.066197 0.251114 0.193792
 C 2.391467 0.165400 0.070149
 C 3.082517 -1.074344 -0.186952
 C 4.411380 -1.200394 -0.317386
 C 5.017170 -2.501474 -0.577314
 O 6.201571 -2.692398 -0.706239
 H 0.573321 1.195915 0.386932
 H 0.434603 -0.626891 0.104605
 H 3.002521 1.059455 0.163624
 H 2.466043 -1.968208 -0.279953
 H 5.080895 -0.349132 -0.235649
 H 4.292635 -3.342432 -0.652799