12
charge = 0
 C 2.195371 -0.553632 0.487920
 C 3.349931 -0.113076 -0.003268
 C 3.542784 0.924513 -1.019302
 C 2.581255 1.618094 -1.636044
 C 4.957410 1.220474 -1.386816
 O 5.305011 2.036509 -2.197855
 H 2.172865 -1.330519 1.241913
 H 1.237206 -0.162962 0.162715
 H 4.268937 -0.556981 0.375493
 H 1.528772 1.466540 -1.428877
 H 2.855201 2.363358 -2.373623
 H 5.712456 0.612984 -0.842055