16
charge = 0
 C 0.732525 -0.336915 -0.099940
 C 2.183111 -0.274651 0.262068
 C 2.659545 -0.824920 1.377911
 C 3.076074 0.487921 -0.673811
 C 2.980365 1.994374 -0.437407
 O 3.409587 2.360279 0.850576
 H 0.142210 -0.827848 0.674504
 H 0.597155 -0.887210 -1.036998
 H 0.319655 0.663252 -0.264819
 H 2.011859 -1.344982 2.075745
 H 3.718052 -0.794610 1.614030
 H 2.801427 0.279069 -1.713943
 H 4.116514 0.183962 -0.533516
 H 1.952626 2.340188 -0.622556
 H 3.630918 2.517268 -1.142229
 H 2.992887 1.754724 1.475065