14
charge = 0
 C 0.967629 -0.026861 -0.111680
 C 2.437787 -0.276743 -0.222009
 C 2.946189 -1.319113 -0.871961
 C 3.323070 0.711957 0.492129
 C 3.300040 0.433908 1.975246
 O 2.814971 1.155629 2.800751
 H 0.390441 -0.818647 -0.589847
 H 0.703224 0.926277 -0.581045
 H 0.656744 0.047986 0.935212
 H 2.305588 -2.045149 -1.360245
 H 4.016612 -1.476635 -0.946283
 H 2.990360 1.739888 0.328532
 H 4.355365 0.602841 0.145642
 H 3.757680 -0.537358 2.264868