18
charge = 0
 C 1.048832 0.094272 -0.005526
 C 2.573077 0.080875 -0.064220
 C 3.050307 -1.229817 -0.684952
 C 3.075057 1.260065 -0.891121
 C 3.093972 0.197619 1.371865
 O 4.500355 0.208170 1.487564
 H 0.621115 0.031566 -1.009612
 H 0.680445 1.015356 0.455672
 H 0.663864 -0.749880 0.574331
 H 2.636200 -1.356317 -1.688673
 H 2.736877 -2.091398 -0.086494
 H 4.139487 -1.255508 -0.784316
 H 2.748784 1.173773 -1.931241
 H 4.165566 1.308907 -0.875112
 H 2.690889 2.204958 -0.496320
 H 2.659364 -0.610740 1.978520
 H 2.754527 1.144765 1.801268
 H 4.828694 -0.668555 1.275277