14
charge = 0
 C 0.923665 -0.066537 0.052195
 C 2.374696 -0.087603 0.064234
 C 3.576987 -0.106726 0.085908
 C 5.029964 -0.132827 0.066224
 C 5.589183 -0.232855 -1.352574
 O 6.995680 -0.307580 -1.367086
 H 0.545304 0.424421 -0.847942
 H 0.532419 0.474410 0.917577
 H 0.515202 -1.079922 0.077858
 H 5.403330 -0.980909 0.649275
 H 5.420828 0.773550 0.545234
 H 5.221726 0.609099 -1.952772
 H 5.229263 -1.150243 -1.821616
 H 7.350562 0.529904 -1.058605