14
charge = 0
 C 1.128779 -0.030475 -0.394279
 C 2.540241 -0.129909 -0.076707
 C 3.713353 -0.209763 0.170983
 C 5.127880 -0.311504 0.511308
 C 5.477805 0.562993 1.708248
 O 5.886740 0.047578 -0.634363
 H 0.987591 0.400849 -1.388444
 H 0.606554 0.605888 0.324478
 H 0.652042 -1.013806 -0.384487
 H 5.331661 -1.361856 0.771393
 H 5.282933 1.610428 1.473400
 H 4.885173 0.280546 2.580245
 H 6.535609 0.448510 1.963270
 H 6.815838 -0.021188 -0.397046