14
charge = 0
 C 1.034403 0.238272 0.086928
 C 2.504812 -0.171374 0.063267
 C 2.720509 -1.502460 -0.584264
 C 2.985789 -2.635707 0.066718
 C 2.639034 -1.582444 -2.057178
 O 2.452814 -0.639355 -2.782947
 H 0.917783 1.218840 0.553309
 H 0.437186 -0.479700 0.654028
 H 0.630219 0.297335 -0.924751
 H 2.902586 -0.198024 1.081080
 H 3.073388 0.579851 -0.493033
 H 3.083895 -2.672704 1.146086
 H 3.116460 -3.568413 -0.473753
 H 2.776011 -2.604527 -2.471480