18
charge = 0
 C 3.157966 0.249456 1.094897
 C 2.338711 0.200565 -0.182334
 C 2.919210 -0.719688 -1.241316
 C 2.007693 -0.837090 -2.450956
 O 4.189800 -0.201625 -1.591120
 C 5.035500 -1.114817 -2.230658
 H 2.713780 0.932149 1.822726
 H 4.174787 0.587118 0.889203
 H 3.219878 -0.738153 1.561475
 H 2.256394 1.203394 -0.616153
 H 1.318292 -0.131140 0.035398
 H 3.061125 -1.721115 -0.799303
 H 1.845296 0.147682 -2.896225
 H 1.038570 -1.249495 -2.160433
 H 2.429060 -1.493565 -3.214736
 H 6.003789 -0.628256 -2.354958
 H 4.668249 -1.409347 -3.222199
 H 5.172811 -2.024664 -1.629018