12
charge = 0
 C 0.999112 -0.046452 -0.010447
 C 2.501349 -0.086413 -0.000194
 C 3.244256 0.101595 -1.087917
 C 3.245553 -0.345998 1.265535
 O 2.433631 -0.527221 2.324460
 O 4.443431 -0.396209 1.371944
 H 0.641915 0.925032 -0.359558
 H 0.582192 -0.222224 0.978048
 H 0.598068 -0.805695 -0.685713
 H 2.789981 0.296649 -2.052977
 H 4.324622 0.062299 -1.025361
 H 3.015690 -0.685683 3.080370