10
charge = 0
 C 0.973373 -0.042222 0.083831
 C 2.418894 -0.043644 0.099225
 C 3.621170 -0.046490 0.111706
 C 5.058412 -0.043598 0.058174
 O 5.606880 -0.145503 1.279429
 O 5.704437 0.039442 -0.951907
 H 0.592256 0.304253 -0.879241
 H 0.579137 0.607886 0.868376
 H 0.591591 -1.051089 0.259684
 H 6.565750 -0.135254 1.146122