10
charge = 0
 C 0.907823 0.026348 -0.027407
 C 2.244549 0.048963 -0.094131
 C 2.995895 0.220553 1.179149
 O 4.189321 0.259829 1.277221
 C 2.975834 -0.080948 -1.304254
 C 3.620285 -0.188164 -2.312149
 H 0.412479 0.131255 0.932052
 H 0.289081 -0.094493 -0.907109
 H 2.333648 0.312867 2.066451
 H 4.192373 -0.281809 -3.205023