16
charge = 0
 C 0.911827 0.123600 -0.022883
 C 2.431759 -0.023765 0.042660
 C 2.869036 -1.349779 -0.559070
 O 3.042958 1.054992 -0.666983
 C 2.880289 0.163304 1.466209
 C 3.336410 -0.770567 2.285861
 H 0.571133 0.071760 -1.062445
 H 0.606279 1.086473 0.390930
 H 0.414753 -0.670678 0.537463
 H 2.548838 -1.405728 -1.603461
 H 2.423674 -2.198028 -0.034879
 H 3.955384 -1.443191 -0.525573
 H 2.710470 1.039627 -1.569209
 H 2.785749 1.189328 1.814736
 H 3.457638 -1.803767 1.979924
 H 3.610395 -0.530091 3.306431