14
charge = 0
 C 1.058919 0.047237 0.061808
 C 2.586840 0.068440 0.059345
 C 3.115787 1.489862 0.245615
 O 3.089357 -0.779052 1.087708
 C 3.083255 -0.478040 -1.207095
 C 3.468034 -0.892026 -2.264937
 H 0.686676 0.455860 1.006266
 H 0.700733 -0.976802 -0.045515
 H 0.656276 0.649528 -0.754240
 H 2.745111 1.899663 1.190178
 H 2.784093 2.141845 -0.564141
 H 4.205700 1.481469 0.267814
 H 2.769852 -0.430184 1.925515
 H 3.816467 -1.270401 -3.196721