14
charge = 0
 C 0.879601 0.008305 -0.044955
 C 2.405670 0.043875 -0.067110
 C 2.948436 -0.337652 -1.449291
 O 4.349457 -0.357316 -1.503299
 C 2.924999 1.351883 0.312788
 C 3.378439 2.432792 0.578464
 H 0.521859 -0.988663 -0.312621
 H 0.465023 0.726142 -0.755968
 H 0.496639 0.255650 0.945679
 H 2.795172 -0.689603 0.649067
 H 2.524476 0.347886 -2.197176
 H 2.613048 -1.348687 -1.692955
 H 4.663358 0.512479 -1.232385
 H 3.765614 3.390909 0.834052