16
charge = 0
 C 1.469259 0.581105 -0.464082
 C 2.778086 -0.171700 -0.300031
 C 3.306121 -0.126812 1.124608
 O 2.368008 -0.659092 2.053937
 C 4.636465 -0.789277 1.333034
 C 5.387595 -1.376132 0.411351
 H 1.096517 0.503887 -1.487655
 H 1.595852 1.643002 -0.235543
 H 0.706006 0.187432 0.208944
 H 3.535819 0.249703 -0.968434
 H 2.649742 -1.219766 -0.597071
 H 3.402782 0.925459 1.422543
 H 2.342608 -1.612207 1.923734
 H 4.967548 -0.786049 2.369681
 H 5.101710 -1.408935 -0.634209
 H 6.329992 -1.843626 0.672793