16
charge = 0
 C 0.540874 0.138110 -0.924442
 C 2.056676 0.223848 -0.882584
 C 2.583447 0.181938 0.531517
 O 3.994087 0.265844 0.490362
 C 4.641628 0.243083 1.667644
 C 4.126051 0.150549 2.890400
 H 0.174303 0.169482 -1.952011
 H 0.078589 0.968677 -0.383764
 H 0.180606 -0.790913 -0.473880
 H 2.398955 1.148082 -1.357673
 H 2.500394 -0.601539 -1.447318
 H 2.285722 -0.749674 1.031919
 H 2.183265 1.017166 1.122441
 H 5.712440 0.313455 1.505942
 H 3.066001 0.078842 3.090195
 H 4.799052 0.146240 3.736352