10
charge = 0
 C 0.874529 0.024241 -0.035596
 C 2.205695 0.097003 0.005284
 C 2.863172 1.181103 0.759419
 O 4.055543 1.318983 0.846906
 C 3.051114 -0.906126 -0.703501
 O 2.593720 -1.818993 -1.339709
 H 0.256154 0.752718 0.479181
 H 0.384848 -0.770116 -0.588111
 H 2.164833 1.886612 1.258670
 H 4.139810 -0.753106 -0.604943