10
charge = 0
 C 1.251546 -0.028886 -0.130305
 C 1.689849 1.014518 0.572175
 C 3.094676 1.335295 0.842665
 O 3.415598 2.306913 1.492293
 C 4.263851 0.482774 0.333144
 O 4.189462 -0.514464 -0.324567
 H 1.930183 -0.746418 -0.571402
 H 0.187816 -0.181186 -0.275614
 H 0.996980 1.727520 1.009715
 H 5.230451 0.918334 0.659196