12
charge = 0
 C 0.991898 -0.934052 0.794679
 C 1.837331 0.049741 0.529076
 C 2.474973 0.248498 -0.803062
 O 3.911398 0.251272 -0.690479
 C 4.523170 -0.920708 -0.858903
 O 4.002989 -1.963408 -1.125339
 H 0.527011 -1.035095 1.768458
 H 0.738246 -1.676635 0.045153
 H 2.094676 0.776572 1.295612
 H 2.234020 1.232275 -1.211050
 H 2.166127 -0.525246 -1.506600
 H 5.605551 -0.778715 -0.722545