12
charge = 0
 C 0.456492 0.812812 -1.112025
 C 1.796492 0.535821 -0.501231
 C 2.905629 0.300664 -1.189531
 O 1.686723 0.565188 0.883267
 C 2.698368 0.360084 1.740727
 O 3.838738 0.122568 1.488549
 H 0.491940 1.702993 -1.742670
 H -0.289684 0.974063 -0.335228
 H 0.129890 -0.024201 -1.731829
 H 2.832490 0.310784 -2.270210
 H 3.859603 0.103452 -0.731726
 H 2.290018 0.449972 2.758207