12
charge = 0
 C 1.147531 0.080075 -0.230539
 C 2.599300 -0.038178 0.177150
 C 3.024358 0.972459 1.223386
 O 4.166101 1.174572 1.527072
 C 2.963332 -1.419309 0.698249
 O 2.199008 -2.339692 0.729701
 H 0.938933 1.066364 -0.649699
 H 0.489076 -0.078011 0.626137
 H 0.893877 -0.674221 -0.974999
 H 3.280978 0.123239 -0.669722
 H 2.190612 1.510865 1.723543
 H 4.008972 -1.512262 1.052811