14
charge = 0
 C 0.987773 0.045060 0.355271
 C 2.321875 0.043920 -0.385312
 C 2.673249 -1.322279 -0.956817
 O 3.948176 -1.362080 -1.542508
 C 2.320566 1.109122 -1.445658
 O 2.630791 0.938731 -2.596454
 H 1.022700 -0.636154 1.207307
 H 0.174604 -0.277046 -0.300504
 H 0.739633 1.039413 0.733927
 H 3.112803 0.341523 0.319948
 H 1.893594 -1.619916 -1.673005
 H 2.671909 -2.060449 -0.150560
 H 3.910977 -0.780783 -2.310522
 H 2.000371 2.116738 -1.100203