14
charge = 0
 C 1.039161 -0.055789 -0.333513
 C 2.493353 -0.238487 0.049669
 C 2.707398 -0.507589 1.513028
 O 1.803298 -0.570910 2.313423
 C 4.126497 -0.707335 1.997538
 O 4.168048 -0.945069 3.365132
 H 0.945235 0.135656 -1.403709
 H 0.594848 0.781162 0.206789
 H 0.456170 -0.944924 -0.089804
 H 3.089018 0.644254 -0.212966
 H 2.952071 -1.064445 -0.507436
 H 4.709765 0.187089 1.732253
 H 4.567198 -1.544344 1.435579
 H 3.242150 -0.919049 3.655015