12
charge = 0
 C 1.001193 -0.054947 0.138120
 C 2.482267 0.164508 -0.082646
 C 2.789671 1.067615 -1.234854
 O 1.969946 1.592075 -1.945873
 C 4.263920 1.348716 -1.534753
 O 5.168740 0.887149 -0.900476
 H 0.833916 -0.718872 0.987545
 H 0.534755 -0.499469 -0.742523
 H 0.489461 0.888771 0.333636
 H 3.019484 -0.775789 -0.257209
 H 2.974967 0.588989 0.800696
 H 4.410281 2.025463 -2.401152