14
charge = 0
 C 1.137848 -1.346396 0.216370
 C 2.420409 -0.537605 0.114755
 C 2.129925 0.933384 -0.084473
 O 3.336576 1.693240 -0.258427
 C 3.932669 2.126246 0.848332
 O 3.559876 1.950308 1.971974
 H 1.354831 -2.407064 0.354136
 H 0.530487 -1.247569 -0.687681
 H 0.529196 -1.020632 1.063890
 H 3.028910 -0.894437 -0.721832
 H 3.015755 -0.660413 1.023515
 H 1.573168 1.339735 0.762511
 H 1.561898 1.100771 -1.001250
 H 4.837551 2.687842 0.572679