12
charge = 0
 C 0.982726 -0.057342 0.149467
 C 2.453168 0.001058 -0.150837
 O 3.184074 0.847385 0.293590
 C 2.968321 -1.066941 -1.076307
 C 3.904683 -0.675071 -2.139455
 O 4.345135 -1.364878 -0.997706
 H 0.681641 0.820408 0.717624
 H 0.761733 -0.961662 0.725199
 H 0.403728 -0.122727 -0.776621
 H 2.319507 -1.924570 -1.245025
 H 4.206736 0.367636 -2.191989
 H 3.911047 -1.239615 -3.068640