12
charge = 0
 C 3.145959 -1.093917 -0.716049
 C 2.480742 -0.087670 -0.157266
 O 2.977926 0.981107 0.494872
 C 4.386083 1.037976 0.596792
 C 4.775529 2.234596 1.318362
 C 5.132720 3.213424 1.910769
 H 2.582610 -1.877085 -1.203666
 H 4.223753 -1.180880 -0.714546
 H 1.397772 -0.033953 -0.178404
 H 4.833798 1.043647 -0.406021
 H 4.759517 0.147550 1.120063
 H 5.441800 4.085206 2.437585