16
charge = 0
 C 0.938230 -0.447248 -0.133271
 C 2.393384 -0.010500 -0.131935
 O 2.893038 0.120822 -1.446487
 C 2.645006 1.273460 0.673502
 C 1.943992 2.459943 0.098816
 C 2.535846 3.397142 -0.633027
 H 0.831712 -1.375062 -0.697543
 H 0.298844 0.305046 -0.602930
 H 0.574988 -0.617319 0.884022
 H 2.996415 -0.803782 0.320976
 H 2.546175 0.945692 -1.806138
 H 3.723288 1.453983 0.684922
 H 2.323662 1.107855 1.707323
 H 0.872058 2.532096 0.270599
 H 3.605253 3.373038 -0.821093
 H 1.980028 4.228535 -1.051537