14
charge = 0
 C 0.745147 -0.099988 -0.962031
 C 2.117049 -0.113693 -0.339550
 O 1.980967 -0.305281 1.049626
 C 3.224807 -0.329357 1.698760
 C 3.048919 -0.527284 3.127597
 C 2.933939 -0.689446 4.310096
 H 0.821387 0.047505 -2.041463
 H 0.141599 0.707751 -0.544107
 H 0.229880 -1.044304 -0.777266
 H 2.642615 0.833805 -0.536673
 H 2.730926 -0.920367 -0.769978
 H 3.768750 0.613538 1.528786
 H 3.855864 -1.138111 1.296888
 H 2.823851 -0.833766 5.358814