12
charge = 0
 C 0.903706 0.169153 0.353069
 C 2.401568 0.116535 0.310750
 O 3.102548 0.713800 1.087675
 C 3.026558 -0.765287 -0.758931
 C 3.867570 -1.845085 -0.119972
 O 3.796062 -3.003830 -0.415193
 H 0.571046 0.809850 1.167472
 H 0.501446 -0.840707 0.479336
 H 0.517249 0.543015 -0.599791
 H 3.709937 -0.125937 -1.329986
 H 2.301125 -1.218409 -1.433987
 H 4.564966 -1.482107 0.660566