16
charge = 0
 C 0.975646 0.341039 -0.062267
 C 2.452610 0.006940 -0.037820
 O 2.988507 0.188757 1.275643
 C 2.749628 -1.386789 -0.572791
 C 4.232417 -1.715187 -0.640655
 O 4.839413 -1.825282 0.624304
 H 0.802520 1.340479 0.340861
 H 0.407415 -0.377695 0.538093
 H 0.581757 0.304847 -1.080425
 H 2.996828 0.737538 -0.646613
 H 2.445301 -0.317597 1.888432
 H 2.322758 -1.469867 -1.578907
 H 2.241414 -2.133233 0.051217
 H 4.741888 -0.956382 -1.256522
 H 4.374731 -2.677736 -1.138877
 H 4.573377 -1.040520 1.120528