14
charge = 0
 C 0.796640 -0.277995 0.112716
 C 2.298675 -0.162519 0.094580
 O 2.656091 1.031420 -0.564004
 C 4.035147 1.227365 -0.630695
 C 4.309835 2.522858 -1.348731
 O 5.413362 2.944385 -1.549429
 H 0.495142 -1.197379 0.618859
 H 0.399677 -0.297379 -0.903909
 H 0.351755 0.568114 0.639648
 H 2.749086 -1.021628 -0.425320
 H 2.701161 -0.155497 1.118878
 H 4.543176 0.415087 -1.174717
 H 4.494915 1.280782 0.369090
 H 3.399138 3.064166 -1.682056