16
charge = 0
 C 0.767642 -0.230868 -0.114518
 C 2.253689 -0.136729 0.117648
 O 2.920335 -0.671623 -1.011134
 C 4.306343 -0.578353 -0.939790
 O 4.882355 -1.402399 0.024144
 C 4.775254 -2.773705 -0.279281
 H 0.224423 0.179673 0.739510
 H 0.463342 -1.271099 -0.246729
 H 0.479577 0.325778 -1.008388
 H 2.543586 -0.685650 1.021210
 H 2.560366 0.910595 0.257495
 H 4.616685 0.440651 -0.675699
 H 4.670324 -0.840338 -1.941712
 H 5.296828 -3.319170 0.506854
 H 5.246649 -3.000471 -1.244956
 H 3.731412 -3.101183 -0.315146