16
charge = 0
 C 2.513463 1.140259 -0.064491
 O 2.235716 -0.235689 -0.003945
 C 2.809977 -0.842129 1.101947
 C 3.112409 -2.291375 0.982719
 C 4.238718 -1.290766 1.047810
 C 5.121241 -1.211811 2.259917
 H 2.025019 1.532097 -0.956960
 H 3.592220 1.330761 -0.131461
 H 2.121339 1.668069 0.815434
 H 2.440308 -0.471486 2.059611
 H 2.901161 -2.748133 0.024026
 H 2.935094 -2.925405 1.843634
 H 4.726133 -1.103825 0.095545
 H 4.541220 -1.361918 3.174621
 H 5.612766 -0.237840 2.335152
 H 5.899616 -1.979720 2.237342