14
charge = 0
 C 2.613929 0.988139 0.128276
 O 2.119754 -0.300765 -0.146432
 C 2.741169 -1.273843 0.614826
 C 2.754305 -2.658858 0.063117
 C 4.028467 -1.861380 0.151106
 O 4.972966 -2.164562 1.125719
 H 2.078380 1.684433 -0.517060
 H 3.689253 1.057973 -0.076910
 H 2.441005 1.266965 1.175865
 H 2.630542 -1.168227 1.694111
 H 2.322844 -2.803348 -0.919585
 H 2.616142 -3.471826 0.765188
 H 4.421003 -1.473458 -0.786977
 H 5.382640 -3.003943 0.899076