16
charge = 0
 C 1.254124 0.622029 0.069200
 O 2.646028 0.463747 -0.052171
 C 3.248427 -0.114804 1.019463
 C 4.558749 -0.341669 1.079965
 C 5.488128 0.022038 -0.031338
 C 5.155601 -0.982752 2.290476
 H 0.904417 1.091856 -0.849331
 H 0.996501 1.265860 0.918613
 H 0.749795 -0.344256 0.188955
 H 2.586210 -0.386758 1.839490
 H 4.960758 0.481892 -0.866190
 H 6.015894 -0.863822 -0.402075
 H 6.257100 0.720134 0.318051
 H 4.400108 -1.210786 3.045198
 H 5.907778 -0.332701 2.751912
 H 5.666552 -1.917218 2.031702