14
charge = 0
 C 3.531261 -0.774593 0.770468
 O 2.648874 0.055141 0.050042
 C 3.008351 0.386155 -1.197930
 C 4.114077 0.027549 -1.864395
 C 4.356972 0.472381 -3.217251
 C 5.429199 0.160892 -3.947079
 H 3.078070 -0.933084 1.747237
 H 4.508723 -0.296039 0.892359
 H 3.664002 -1.737766 0.266503
 H 2.257726 1.024043 -1.654325
 H 4.861180 -0.610020 -1.403947
 H 3.592266 1.110942 -3.656193
 H 6.218257 -0.472066 -3.553922
 H 5.550031 0.528866 -4.958056