12
charge = 0
 C 0.914580 -0.482963 0.279311
 O 2.294004 -0.200048 0.159079
 C 2.961128 -0.953086 -0.725261
 C 4.271579 -0.793160 -0.941333
 C 4.985385 -1.580532 -1.870224
 C 5.622713 -2.235554 -2.655086
 H 0.518213 0.202338 1.026183
 H 0.751260 -1.512778 0.612807
 H 0.394879 -0.320435 -0.670377
 H 2.383832 -1.703854 -1.261186
 H 4.810633 -0.032188 -0.385253
 H 6.181195 -2.816642 -3.349360