16
charge = 0
 C 1.595240 -0.506855 0.357116
 O 2.966804 -0.306897 0.163252
 C 3.232899 0.556365 -0.915591
 C 4.707717 0.791727 -1.027818
 C 5.393689 1.264310 0.212277
 C 5.336067 0.612396 -2.184266
 H 1.476517 -1.175718 1.209891
 H 1.124779 -0.967331 -0.523230
 H 1.075699 0.438414 0.570145
 H 2.720185 1.520133 -0.747076
 H 2.840891 0.135989 -1.852905
 H 4.942626 2.194132 0.575191
 H 6.456044 1.437989 0.037938
 H 5.281649 0.529117 1.012826
 H 4.812070 0.253530 -3.063546
 H 6.394715 0.822418 -2.291605