14
charge = 0
 C 1.301720 -0.195334 -0.115536
 O 2.695721 -0.160513 -0.309683
 C 3.148339 -0.207774 -1.584649
 C 2.399745 -0.333583 -2.678117
 C 4.643249 -0.113407 -1.586142
 O 5.114989 1.030890 -0.911781
 H 1.134510 -0.111492 0.956964
 H 0.878383 -1.137884 -0.478068
 H 0.813701 0.638319 -0.631006
 H 1.323915 -0.437003 -2.654870
 H 2.881522 -0.338403 -3.645654
 H 5.003748 -0.055348 -2.612847
 H 5.052447 -1.028699 -1.132431
 H 4.691520 1.044820 -0.048259