12
charge = 0
 C 2.287896 -0.826832 -0.112226
 O 3.581888 -0.505125 -0.562855
 C 3.751652 -0.410794 -1.896861
 C 2.839533 -0.585537 -2.853061
 C 5.164156 -0.066626 -2.215919
 O 5.593825 0.079702 -3.327298
 H 2.335563 -0.860003 0.974501
 H 1.970630 -1.802429 -0.496351
 H 1.563810 -0.066873 -0.425532
 H 1.806565 -0.835661 -2.658430
 H 3.164075 -0.467559 -3.877994
 H 5.806098 0.047366 -1.318772