16
charge = 0
 C 3.802907 -1.049823 -0.586694
 O 2.837700 -1.386931 0.381115
 C 2.915108 -0.614021 1.543808
 C 1.673511 -0.901682 2.355979
 O 4.117090 -0.820283 2.239517
 C 4.297101 -2.112808 2.772464
 H 3.619011 -1.680704 -1.456168
 H 4.820770 -1.221772 -0.223067
 H 3.712081 0.003261 -0.884488
 H 2.961417 0.450929 1.275211
 H 1.561314 -1.972622 2.531420
 H 0.794189 -0.556213 1.811439
 H 1.723490 -0.382610 3.314274
 H 5.341231 -2.181778 3.078120
 H 4.091319 -2.889891 2.029406
 H 3.665491 -2.284524 3.651443