10
charge = 0
 C 1.457858 0.796896 0.420906
 O 2.816189 0.418040 0.207648
 C 3.215718 0.454957 -1.063943
 O 2.525261 0.775187 -1.992972
 C 4.600435 0.056586 -1.186886
 C 5.744379 -0.265300 -1.346678
 H 1.293632 0.708948 1.492051
 H 0.785949 0.134596 -0.126480
 H 1.290950 1.822751 0.089857
 H 6.760708 -0.551462 -1.487514