12
charge = 0
 O 1.016849 0.221822 -0.070461
 C 2.398317 0.088915 -0.036475
 C 3.090214 -0.675550 -1.111664
 C 3.141669 0.841274 -1.098416
 C 4.360690 1.520542 -0.787488
 C 5.389136 2.083205 -0.523416
 H 0.626357 -0.615114 0.196473
 H 2.846362 0.086822 0.954131
 H 2.470902 -1.122447 -1.879246
 H 4.000422 -1.207382 -0.866962
 H 2.499480 1.330135 -1.823128
 H 6.297203 2.586571 -0.290848