12
charge = 0
 O 1.072467 0.277551 0.025716
 C 2.451164 0.135205 0.063301
 C 3.148580 -0.666305 -0.967252
 C 3.194763 0.851886 -1.028438
 C 4.456407 1.528142 -0.694662
 O 4.857892 2.533334 -1.215767
 H 0.675095 -0.535524 0.350338
 H 2.896165 0.171140 1.056432
 H 2.545823 -1.143174 -1.729348
 H 4.057044 -1.189685 -0.692040
 H 2.583741 1.332851 -1.781983
 H 5.049958 1.027768 0.106212