12
charge = 0
 O 1.029412 0.022535 -0.540140
 C 2.179870 0.033391 -0.179546
 C 3.052126 -1.193769 0.061871
 C 4.409858 -0.650219 0.503058
 C 4.231603 0.837497 0.486927
 C 3.008994 1.217029 0.113307
 H 3.100742 -1.779980 -0.858170
 H 2.575074 -1.825050 0.814459
 H 5.224074 -0.948132 -0.165639
 H 4.700020 -0.992740 1.501737
 H 5.035842 1.512967 0.757773
 H 2.637785 2.229181 0.024262