12
charge = 0
 O 0.824112 0.004641 0.278452
 C 2.220921 0.064274 0.101164
 C 2.776739 1.230999 -0.672816
 C 3.599557 0.769317 -1.620427
 C 3.583658 -0.699091 -1.603684
 C 2.752278 -1.121778 -0.645766
 H 0.552166 0.766767 0.795793
 H 2.734706 0.066509 1.083487
 H 2.571591 2.265903 -0.431970
 H 4.193593 1.367143 -2.300115
 H 4.162020 -1.325283 -2.270657
 H 2.505968 -2.140692 -0.382761