12
charge = 0
 O 1.279571 -0.143838 0.285051
 C 2.420065 -0.017551 -0.038637
 C 3.268675 1.236447 -0.033662
 C 4.449148 0.869826 -0.916914
 C 4.510649 -0.643050 -0.737243
 O 3.167713 -1.055772 -0.478672
 H 3.569417 1.424649 1.002038
 H 2.681172 2.090052 -0.366823
 H 5.382823 1.358292 -0.638399
 H 4.234982 1.116088 -1.959389
 H 5.132088 -0.928599 0.117797
 H 4.860289 -1.179045 -1.619268