14
charge = 0
 O 0.905083 -0.071514 -0.032692
 C 2.309108 0.024485 -0.004773
 C 2.875911 1.131974 0.876343
 C 4.253880 0.587804 1.204487
 O 4.128051 -0.829656 1.223206
 C 2.887549 -1.214235 0.663129
 H 0.555871 0.665004 -0.539514
 H 2.709229 0.118104 -1.024251
 H 2.256566 1.206391 1.774670
 H 2.907208 2.108683 0.389273
 H 4.627031 0.921900 2.175996
 H 4.989552 0.876354 0.442041
 H 2.193038 -1.549014 1.444883
 H 3.049113 -2.039370 -0.034999