12
charge = 0
 O 1.027297 0.003255 0.158180
 C 2.418347 0.060877 0.005891
 C 3.184593 1.162225 0.784102
 C 4.092998 0.058416 1.307853
 O 5.170425 0.047881 1.820605
 C 3.148404 -1.025832 0.813197
 H 0.627424 0.706227 -0.360191
 H 2.707041 0.041274 -1.051180
 H 2.565794 1.565198 1.592022
 H 3.655363 1.980987 0.238244
 H 2.510332 -1.383776 1.627385
 H 3.582983 -1.878721 0.291783