12
charge = 0
 O 0.970197 -0.084126 0.030487
 C 2.391920 -0.101688 0.044788
 C 2.989055 -1.326236 0.756276
 O 3.412889 -0.898062 2.057586
 C 3.389311 0.451833 2.031356
 C 2.889719 0.997825 0.927279
 H 0.666822 -0.608754 -0.715274
 H 2.766308 -0.029398 -0.983456
 H 3.870805 -1.703343 0.230227
 H 2.257634 -2.126664 0.876101
 H 3.776233 0.928241 2.922295
 H 2.762017 2.050573 0.732615