14
charge = 0
 O 3.296396 0.348327 -0.834712
 C 2.295561 -0.144852 0.025661
 C 2.884402 -1.210077 0.904602
 C 1.944396 -1.853909 1.928214
 C 2.372725 -3.167341 1.271292
 O 3.083514 -2.471042 0.240094
 H 2.884774 0.886733 -1.513446
 H 1.455505 -0.578109 -0.533881
 H 1.900464 0.650344 0.678307
 H 3.829174 -0.844511 1.326735
 H 0.893982 -1.601577 1.773203
 H 2.198619 -1.719716 2.978259
 H 1.577910 -3.800552 0.866864
 H 3.045078 -3.782609 1.879917