12
charge = 0
 O 2.173423 0.860832 0.269414
 C 2.038937 -0.310033 0.048429
 C 3.196919 -1.247136 -0.171025
 C 4.072544 -1.549592 1.056584
 C 3.651224 -2.999916 0.805334
 O 2.789700 -2.612230 -0.278827
 H 1.039169 -0.794910 0.001147
 H 3.753911 -0.907374 -1.054022
 H 3.710524 -1.111101 1.985665
 H 5.130797 -1.326882 0.940093
 H 3.094184 -3.490101 1.608388
 H 4.450968 -3.663367 0.463020