14
charge = 0
 O 2.174223 -0.194915 -1.560891
 C 2.263864 -0.003013 -0.166615
 C 2.837737 -1.235193 0.482216
 O 2.939765 -1.094801 1.869246
 C 2.565514 -2.592680 -0.077527
 C 3.944095 -1.983793 -0.164132
 H 1.924316 0.636282 -1.968139
 H 1.271285 0.193431 0.269282
 H 2.912770 0.846966 0.083926
 H 2.065356 -1.224559 2.248192
 H 1.987391 -2.659309 -0.990283
 H 2.419763 -3.395518 0.634961
 H 4.283439 -1.647165 -1.135118
 H 4.705383 -2.374644 0.498591