10
charge = 0
 O 1.075855 -0.260105 -0.031775
 C 2.269498 -0.097861 -0.055685
 C 2.941015 0.969043 -0.796382
 C 4.277520 1.068508 -0.762000
 C 5.032566 2.052041 -1.433711
 C 5.703938 2.878045 -1.994904
 H 2.952386 -0.774305 0.503842
 H 2.324086 1.659328 -1.360968
 H 4.840278 0.343055 -0.175579
 H 6.289057 3.613052 -2.496127