16
charge = 0
 O 0.575783 0.093403 0.032218
 C 1.946945 -0.223037 0.164028
 C 2.735533 0.694925 -0.740148
 C 4.235568 0.425839 -0.676339
 C 5.016276 1.296084 -1.604123
 C 5.973298 2.137377 -1.239216
 H 0.070411 -0.483584 0.608721
 H 2.137011 -1.269836 -0.115922
 H 2.281152 -0.094539 1.204051
 H 2.530591 1.732385 -0.459629
 H 2.374343 0.569363 -1.766271
 H 4.417248 -0.625858 -0.935532
 H 4.600683 0.564034 0.346976
 H 4.753339 1.222331 -2.658635
 H 6.264792 2.245711 -0.198692
 H 6.501137 2.746901 -1.963496