12
charge = 0
 O 2.424259 -1.142832 0.538714
 C 2.044683 -0.121530 0.036031
 C 2.931716 0.850964 -0.686690
 C 4.400799 0.517208 -0.567246
 C 4.976526 0.859103 0.776831
 O 4.392536 1.466331 1.631264
 H 0.970219 0.158112 0.065544
 H 2.717852 1.850216 -0.292956
 H 2.603666 0.862672 -1.733525
 H 4.999102 1.052943 -1.314666
 H 4.581976 -0.548255 -0.743973
 H 6.022366 0.521478 0.937371