12
charge = 0
 O 0.823201 -0.067922 -0.269043
 C 2.128827 -0.011921 0.195340
 C 2.359363 1.075190 1.208239
 C 1.398548 1.846145 1.690331
 C 2.535705 -1.342041 0.788662
 O 1.786093 -2.280535 0.799969
 H 0.520336 -0.974612 -0.106384
 H 2.830543 0.159092 -0.644056
 H 3.390595 1.205715 1.528467
 H 0.374430 1.726385 1.358193
 H 1.615240 2.620871 2.415729
 H 3.557118 -1.406457 1.209844