12
charge = 0
 O 1.545370 0.362004 -1.026828
 C 2.560150 0.093596 -0.083677
 C 2.981638 -1.322744 -0.238369
 C 4.233554 -1.769422 -0.152249
 C 4.522900 -3.199385 -0.265610
 O 5.623704 -3.682174 -0.178991
 H 1.177266 1.229385 -0.843737
 H 2.184840 0.225527 0.943829
 H 3.422164 0.761645 -0.208180
 H 2.172054 -2.030930 -0.410168
 H 5.079242 -1.105626 0.003418
 H 3.630518 -3.837865 -0.446328