12
charge = 0
 O 1.061192 -0.060446 -0.127116
 C 2.470497 -0.031679 -0.023199
 C 2.959324 1.317101 -0.246148
 C 3.373570 2.431922 -0.424163
 C 3.901082 3.769772 -0.654178
 O 4.141920 4.064465 -2.013895
 H 0.773633 -0.963572 0.029966
 H 2.937520 -0.698912 -0.761776
 H 2.802929 -0.363457 0.970804
 H 4.811878 3.899446 -0.052449
 H 3.179112 4.512350 -0.304586
 H 4.631544 3.330409 -2.394258