14
charge = 0
 O 1.859559 -0.479426 -1.557293
 C 1.716864 0.085157 -0.264171
 C 2.859547 -0.409716 0.595648
 C 4.222847 0.007011 0.075269
 C 4.570104 1.448903 0.282214
 O 3.887275 2.252084 0.859168
 H 1.192817 -0.099678 -2.132918
 H 0.765045 -0.220942 0.189675
 H 1.732475 1.180414 -0.309163
 H 2.810041 -1.501167 0.643761
 H 2.718623 -0.028088 1.610385
 H 4.316151 -0.206356 -0.996609
 H 5.028196 -0.570958 0.548408
 H 5.553846 1.753061 -0.139863