10
charge = 0
 O 0.898014 0.170328 0.361227
 C 2.199947 -0.011731 0.075810
 O 2.597059 -0.846192 -0.681232
 C 3.035932 0.984453 0.850096
 C 4.460434 0.877976 0.616876
 C 5.643132 0.807520 0.438725
 H 0.406714 -0.484928 -0.153670
 H 2.804944 0.851837 1.912509
 H 2.673977 1.986164 0.594788
 H 6.691947 0.735783 0.272771