13
charge = 0
 C 0.401686 1.432058 0.262765
 C 1.322944 0.308559 -0.150947
 O 0.956576 -0.920380 0.459032
 N -0.361689 -1.293556 0.346844
 C -1.220355 -0.411800 0.026328
 C -0.999750 1.051878 -0.182011
 H 0.723344 2.377688 -0.179137
 H 0.441369 1.543935 1.349619
 H 2.355053 0.473952 0.160356
 H 1.301552 0.181280 -1.242333
 H -2.230081 -0.808255 -0.047044
 H -1.765953 1.602134 0.372524
 H -1.159694 1.295608 -1.238875