13
charge = 0
 C 0.593225 1.326502 -0.047999
 N -0.791980 1.364705 -0.515048
 C -1.436442 0.142994 -0.034965
 C -0.327196 -0.871356 0.113121
 O 0.534073 -0.914973 -1.019185
 C 0.931125 -0.137624 0.105040
 H 0.687916 1.815407 0.929763
 H 1.245806 1.853450 -0.747608
 H -0.780548 1.333978 -1.524853
 H -2.223117 -0.169294 -0.725330
 H -1.899183 0.306858 0.946378
 H -0.469257 -1.808189 0.643389
 H 1.821468 -0.472458 0.628677