11
charge = 0
 C 0.998983 0.033362 -0.077033
 C 2.469809 0.181283 -0.072801
 C 3.306075 1.249545 -0.072006
 C 4.591833 0.660402 -0.067135
 N 4.533218 -0.639887 -0.065187
 O 3.192444 -0.945930 -0.068763
 H 0.522749 1.012860 -0.080052
 H 0.662251 -0.516691 0.805024
 H 0.667612 -0.519521 -0.959350
 H 3.044236 2.294102 -0.074509
 H 5.559889 1.140665 -0.064978