11
charge = 0
 C 0.919242 0.027463 -0.083812
 C 2.402553 -0.052289 -0.083502
 N 3.121863 1.037397 -0.083934
 O 4.435999 0.635205 -0.083491
 C 4.480569 -0.696756 -0.082790
 C 3.231279 -1.208315 -0.082754
 H 0.602786 1.069914 -0.084425
 H 0.503717 -0.465530 0.798070
 H 0.504034 -0.466473 -0.965316
 H 5.464666 -1.139261 -0.082383
 H 2.935982 -2.244275 -0.082274