15
charge = 0
 C 0.838801 0.042957 -0.053026
 C 2.334795 -0.040976 0.024701
 C 3.148280 -0.845226 -0.980797
 N 2.590206 -1.544671 -2.098388
 C 3.199298 0.646576 -0.975188
 O 4.321995 1.316679 -0.499821
 H 0.367007 -0.789300 0.477067
 H 0.488036 0.011698 -1.087109
 H 0.471656 0.971464 0.391656
 H 2.753178 -0.046267 1.026506
 H 4.027510 -1.324704 -0.560130
 H 2.096586 -0.924643 -2.724983
 H 1.944727 -2.267848 -1.806639
 H 2.680358 1.146869 -1.795735
 H 5.034966 1.196282 -1.133405