15
charge = 0
 C 0.983596 -0.692964 0.051386
 C 2.354217 -0.084584 -0.010599
 C 3.019515 0.205508 1.312214
 N 3.228268 -1.014623 2.078914
 C 3.184096 -0.267310 -1.195791
 O 2.509580 0.963251 -0.964094
 H 1.020564 -1.684008 0.510591
 H 0.565733 -0.794770 -0.950713
 H 0.310533 -0.062778 0.640521
 H 2.417384 0.965513 1.836113
 H 3.991546 0.659147 1.106656
 H 2.356565 -1.345108 2.473781
 H 3.848643 -0.836813 2.857906
 H 2.806185 -0.851366 -2.031914
 H 4.266873 -0.230996 -1.102082