11
charge = 0
 C 0.880464 0.027285 -0.083662
 C 2.367641 0.033383 -0.081513
 C 3.222918 1.083069 -0.080119
 O 4.492350 0.665112 -0.078349
 N 4.509930 -0.704156 -0.078533
 C 3.261116 -1.071930 -0.080383
 H 0.484895 1.043722 -0.084087
 H 0.483537 -0.484826 0.796483
 H 0.486082 -0.484572 -0.965097
 H 3.076226 2.152321 -0.080171
 H 3.026241 -2.127507 -0.080878