11
charge = 0
 C 1.025736 0.072629 -0.029112
 C 2.507128 0.119682 -0.025519
 C 3.341977 1.181682 -0.026249
 O 4.623940 0.721743 -0.021846
 C 4.491926 -0.613103 -0.018531
 N 3.277913 -1.033805 -0.020698
 H 0.600663 1.076949 -0.032713
 H 0.655522 -0.457597 0.851507
 H 0.659930 -0.462040 -0.908887
 H 3.207862 2.249712 -0.029411
 H 5.400704 -1.195151 -0.014740