15
charge = 0
 C 0.956349 0.184629 -0.236442
 C 2.391678 -0.149181 0.048392
 C 2.765249 -0.174894 1.516888
 O 4.146923 -0.290067 1.708480
 C 3.148910 -0.986224 -0.899495
 N 3.444001 0.445164 -0.773945
 H 0.287306 -0.535930 0.242279
 H 0.751450 0.167201 -1.309552
 H 0.702955 1.177999 0.145580
 H 2.284779 -1.026281 2.009438
 H 2.374221 0.742230 1.986836
 H 4.543622 0.254954 1.012232
 H 2.635074 -1.326546 -1.793008
 H 3.931530 -1.641317 -0.533965
 H 3.055253 0.971071 -1.548129