15
charge = 0
 C 0.962120 -0.014022 -0.201289
 C 2.448801 0.095114 -0.046113
 N 3.333668 -0.812158 -0.775824
 C 3.293347 0.603689 -1.140884
 C 4.553830 1.376553 -0.880462
 O 4.326281 2.760392 -0.706233
 H 0.566941 -0.857753 0.371342
 H 0.687921 -0.159053 -1.250506
 H 0.464937 0.892321 0.153701
 H 2.792495 0.290918 0.967149
 H 2.796722 -1.363278 -1.437675
 H 2.771911 0.864925 -2.062304
 H 5.277637 1.191660 -1.686590
 H 5.003303 1.014713 0.046284
 H 4.028386 3.128980 -1.541196