15
charge = 0
 C 0.929038 0.059676 -0.248495
 C 2.422898 -0.023834 -0.104524
 N 2.975673 0.064165 1.222517
 C 3.203495 -0.897272 -1.054391
 C 3.319685 0.597410 -1.140601
 O 4.477592 1.221555 -0.716370
 H 0.437484 -0.791489 0.234233
 H 0.633884 0.063676 -1.300391
 H 0.542440 0.977393 0.206832
 H 2.892306 -0.811242 1.723758
 H 2.504376 0.779576 1.763535
 H 2.651812 -1.433240 -1.817756
 H 4.066196 -1.417717 -0.654973
 H 2.861946 1.103914 -1.983403
 H 4.539475 1.002129 0.228400