15
charge = 0
 C 1.066821 0.039881 -0.123765
 C 2.543909 0.218794 0.022329
 O 3.373829 -0.678234 -0.714099
 C 3.393376 0.698143 -1.060159
 C 4.684074 1.424749 -0.816818
 N 4.472444 2.862467 -0.904317
 H 0.722893 -0.822100 0.453439
 H 0.799421 -0.120174 -1.169811
 H 0.538819 0.924414 0.241727
 H 2.899778 0.401350 1.036481
 H 2.907990 0.921412 -2.012976
 H 5.439565 1.035959 -1.517969
 H 5.031800 1.180241 0.190373
 H 4.258041 3.132280 -1.856988
 H 5.314940 3.359439 -0.645758