11
charge = 0
 C 0.937965 -0.031429 -0.010539
 C 2.422141 0.085169 0.107087
 O 3.208558 -0.726297 -0.749246
 C 3.235062 0.671626 -0.967692
 C 4.471629 1.353585 -0.669993
 N 5.444723 1.921719 -0.441777
 H 0.590703 -0.933324 0.498502
 H 0.633796 -0.087632 -1.056814
 H 0.451359 0.828778 0.454858
 H 2.826118 0.166422 1.114860
 H 2.742238 1.014283 -1.874544