15
charge = 0
 C 1.011417 0.155641 0.140728
 C 2.503963 0.016036 0.054377
 O 3.211844 1.039737 0.776520
 C 4.127367 0.076361 1.313403
 C 3.230689 -1.078511 0.868997
 N 3.869072 -2.211705 0.264726
 H 0.680742 1.088504 -0.322061
 H 0.684859 0.155621 1.183266
 H 0.522724 -0.672254 -0.381244
 H 2.830997 0.000251 -0.998135
 H 4.300479 0.215680 2.383298
 H 5.090933 0.090544 0.785950
 H 2.597110 -1.429009 1.688322
 H 4.376074 -1.947924 -0.571457
 H 3.203241 -2.930072 0.012687