11
charge = 0
 C 1.042521 0.000325 -0.087458
 C 2.489727 0.008186 -0.107306
 C 3.692856 0.009349 -0.109999
 C 5.145109 -0.014218 -0.050675
 N 5.750853 0.443522 -1.174688
 O 5.752737 -0.410175 0.920597
 H 0.646704 -0.604302 -0.907156
 H 0.648417 1.013786 -0.196084
 H 0.669276 -0.412125 0.852648
 H 5.219233 0.764297 -1.962390
 H 6.755477 0.455655 -1.204578