15
charge = 0
 C 1.980884 -0.253352 1.339210
 C 2.531100 0.002408 -0.060056
 C 3.011336 -1.245434 -0.732799
 C 2.042449 -2.325100 -1.092550
 N 4.260811 -1.320039 -0.961416
 O 4.604969 -2.521970 -1.572166
 H 1.615922 0.674028 1.785622
 H 2.756560 -0.660975 1.991234
 H 1.149471 -0.962368 1.323834
 H 3.362518 0.708617 -0.017110
 H 1.748401 0.454523 -0.681250
 H 1.016029 -2.019859 -0.889689
 H 2.256674 -3.238778 -0.531798
 H 2.139722 -2.581493 -2.149972
 H 5.553255 -2.429298 -1.693794