13
charge = 0
 C 1.271366 0.785548 -0.124150
 C 2.123252 -0.161603 0.240793
 C 3.159321 -0.750394 -0.659830
 N 4.493093 -0.592167 -0.121397
 C 5.332504 -1.628962 0.096442
 O 5.089608 -2.789348 -0.140798
 H 0.525442 1.173980 0.559119
 H 1.283103 1.199314 -1.128169
 H 2.095452 -0.559681 1.252806
 H 3.091910 -0.301722 -1.656702
 H 3.011232 -1.827898 -0.770301
 H 4.804031 0.330617 0.131968
 H 6.296484 -1.298382 0.527126