17
charge = 0
 C 0.966586 0.267669 0.003368
 C 2.457980 -0.010823 -0.130608
 C 2.874236 -1.286606 0.599201
 N 2.252020 -2.478280 0.017116
 C 2.904114 -0.030008 -1.592461
 O 2.246352 -0.998414 -2.370604
 H 0.652411 0.255833 1.051102
 H 0.375139 -0.467463 -0.546735
 H 0.716737 1.247680 -0.409599
 H 3.006700 0.808071 0.352890
 H 2.658055 -1.176394 1.672455
 H 3.957877 -1.406380 0.504546
 H 1.269027 -2.522310 0.257073
 H 2.681519 -3.319874 0.378566
 H 3.996636 -0.173788 -1.625214
 H 2.696308 0.942583 -2.050508
 H 2.254402 -1.811395 -1.835979