15
charge = 0
 C 3.112981 1.497260 0.295717
 C 2.653396 0.095093 -0.063874
 C 3.208718 -0.984859 0.855718
 N 4.651375 -1.094907 0.820752
 C 5.298466 -1.917255 -0.032058
 O 4.764799 -2.650826 -0.832531
 H 2.681917 2.240352 -0.378207
 H 4.200151 1.590506 0.226626
 H 2.816499 1.764630 1.314781
 H 2.939598 -0.145978 -1.091766
 H 1.560531 0.040007 -0.023458
 H 2.808646 -1.958135 0.566650
 H 2.908090 -0.792703 1.890337
 H 5.207883 -0.512264 1.421328
 H 6.397940 -1.859040 0.082385