17
charge = 0
 C 1.048120 -0.126570 0.034703
 C 2.564470 -0.021176 -0.038283
 C 2.999309 1.406625 -0.329172
 O 3.136558 -0.465619 1.194189
 C 3.101058 -0.994667 -1.083577
 N 4.549385 -0.945916 -1.152247
 H 0.654815 0.542166 0.805729
 H 0.749413 -1.146811 0.284096
 H 0.585143 0.152113 -0.915404
 H 2.661270 2.077302 0.467717
 H 2.565964 1.762791 -1.266870
 H 4.084677 1.460968 -0.409857
 H 2.966045 0.202342 1.863287
 H 2.690425 -0.714277 -2.058401
 H 2.701041 -1.990030 -0.834357
 H 4.896142 -1.605423 -1.836054
 H 4.930275 -1.210217 -0.251509