13
charge = 0
 C 0.971379 0.110705 -0.105207
 C 2.487818 0.081445 -0.037993
 C 3.041818 -1.131952 0.704109
 O 4.443469 -1.221387 0.646365
 C 2.570424 -1.150053 2.100379
 N 2.217672 -1.127157 3.194419
 H 0.628812 0.983241 -0.663648
 H 0.527042 0.157109 0.891544
 H 0.580282 -0.778326 -0.606971
 H 2.864155 0.988136 0.448475
 H 2.921222 0.050700 -1.041155
 H 2.670696 -2.044903 0.227311
 H 4.820491 -0.451959 1.084772