15
charge = 0
 C 0.936775 -0.345777 -0.206143
 C 2.440141 -0.443663 -0.351024
 C 2.871889 -1.007026 -1.684721
 O 3.044411 0.852790 -0.265129
 N 3.002356 1.313652 1.021858
 C 3.487846 2.476425 1.133013
 H 0.485023 -1.339895 -0.245443
 H 0.514119 0.258118 -1.013426
 H 0.675309 0.113193 0.748321
 H 2.850860 -1.050066 0.464122
 H 2.504409 -0.381751 -2.502057
 H 2.466946 -2.012410 -1.814950
 H 3.959796 -1.059139 -1.751896
 H 3.501509 2.903209 2.128394
 H 3.880121 3.035019 0.284192