17
charge = 0
 C 1.221066 0.241035 -0.228724
 C 2.692887 0.594019 -0.215975
 N 3.443370 -0.321273 0.624995
 C 4.876438 -0.080487 0.662552
 C 5.189834 1.005666 1.678844
 O 4.612454 0.695741 2.920836
 H 0.659735 0.939949 -0.851932
 H 0.806800 0.268635 0.781189
 H 1.059858 -0.763446 -0.631894
 H 2.822286 1.606924 0.177273
 H 3.083626 0.610570 -1.248036
 H 3.253265 -1.273843 0.344184
 H 5.290175 0.193429 -0.321852
 H 5.364392 -1.004135 0.985600
 H 4.834165 1.981309 1.313457
 H 6.271683 1.086632 1.815085
 H 3.770962 0.271594 2.696578