17
charge = 0
 C 0.992512 -0.029596 -0.018830
 C 2.515561 -0.071885 0.073515
 N 3.182245 0.990464 -0.660764
 C 2.986399 -0.045470 1.531918
 C 4.478545 -0.231818 1.673895
 O 2.662431 1.195313 2.149713
 H 0.667517 -0.113878 -1.058933
 H 0.599905 0.919269 0.361708
 H 0.527160 -0.847423 0.540964
 H 2.853308 -1.029588 -0.343023
 H 3.011898 1.874207 -0.192981
 H 2.812687 1.065777 -1.599862
 H 2.471176 -0.861771 2.059467
 H 5.009141 0.561330 1.146901
 H 4.785161 -1.189580 1.247889
 H 4.759720 -0.211503 2.728010
 H 1.709434 1.241673 2.257803