15
charge = 0
 C 2.564400 -0.678255 -1.389104
 C 2.643629 -0.199584 0.050867
 N 3.055200 -1.234225 0.977741
 C 2.081373 -2.196074 1.417107
 C 4.340398 -1.289159 1.394849
 O 5.222974 -0.532131 1.056407
 H 2.238533 0.137121 -2.038823
 H 1.853960 -1.499956 -1.507343
 H 3.543716 -1.016196 -1.732663
 H 1.672750 0.185294 0.381102
 H 3.373727 0.606218 0.136288
 H 1.250039 -1.705339 1.934223
 H 2.549799 -2.897361 2.109221
 H 1.672464 -2.769186 0.579164
 H 4.512128 -2.121278 2.104384