11
charge = 0
 C 0.976141 -0.076183 -0.056513
 C 2.469699 -0.060971 -0.138200
 N 3.171953 0.135779 -1.190338
 O 2.401254 0.344981 -2.310251
 C 3.204377 -0.285354 1.063775
 C 3.751314 -0.481643 2.115739
 H 0.526854 0.105505 -1.029200
 H 0.638638 0.686368 0.649336
 H 0.638643 -1.042112 0.326486
 H 3.060954 0.473545 -2.997617
 H 4.256764 -0.653516 3.036574