13
charge = 0
 C 2.241377 -1.395400 -0.521682
 C 2.831879 -0.022596 -0.393771
 O 2.887520 0.753987 -1.320326
 C 3.354946 0.360468 0.948474
 C 4.736257 0.920351 0.971811
 N 3.594187 1.773473 1.194240
 H 2.000151 -1.607161 -1.561452
 H 1.332285 -1.457641 0.084526
 H 2.933833 -2.146688 -0.132036
 H 3.008447 -0.217887 1.798745
 H 5.251455 0.980356 0.018259
 H 5.358632 0.729022 1.839090
 H 3.376832 2.263307 0.327132