15
charge = 0
 C 1.055220 0.058227 -0.290069
 C 2.560031 0.115283 -0.097555
 O 3.208121 -0.935988 -0.793762
 C 3.129246 1.419126 -0.600498
 C 4.526199 1.522960 -1.049383
 N 3.426705 1.589298 -2.015297
 H 0.647996 -0.886185 0.084055
 H 0.801446 0.152195 -1.348479
 H 0.564169 0.867475 0.255353
 H 2.787836 0.042020 0.977124
 H 2.745822 -1.755138 -0.604141
 H 2.669922 2.289128 -0.137230
 H 5.125091 0.619496 -1.024950
 H 5.069943 2.450723 -0.907511
 H 3.347863 0.681888 -2.466535