11
charge = 0
 C 0.966205 -0.210267 -0.287626
 C 2.338421 0.141834 0.190888
 O 2.731374 1.267966 0.324601
 C 3.284897 -1.009324 0.571026
 C 2.998515 -2.287197 -0.050814
 N 2.756226 -3.290082 -0.557737
 H 0.373658 0.694277 -0.405465
 H 0.481350 -0.897786 0.411319
 H 1.033573 -0.741640 -1.241500
 H 3.221089 -1.122684 1.659336
 H 4.305392 -0.695696 0.343671