13
charge = 0
 C 2.297783 -1.029821 -1.712372
 C 2.839121 -0.642717 -0.363936
 O 2.993812 0.502184 -0.015182
 N 3.045138 -1.714336 0.497650
 C 4.111011 -2.675209 0.346930
 C 4.089260 -1.705861 1.478651
 H 2.485330 -0.227012 -2.422704
 H 1.217209 -1.170144 -1.623522
 H 2.722305 -1.967568 -2.072873
 H 4.840456 -2.500482 -0.438928
 H 3.846214 -3.714454 0.511184
 H 4.780651 -0.870078 1.446427
 H 3.810910 -2.046402 2.469764