15
charge = 0
 C 1.026278 0.280178 -0.205694
 N 2.465477 0.285901 -0.059515
 C 3.171471 -0.769832 -0.757997
 C 3.230026 0.625967 -1.246153
 C 4.422343 1.502817 -1.005851
 O 4.041828 2.816338 -0.662506
 H 0.586967 -0.373008 0.551785
 H 0.696164 -0.068272 -1.196752
 H 0.639290 1.290000 -0.051885
 H 2.577594 -1.475721 -1.333684
 H 4.020388 -1.200639 -0.236728
 H 2.651126 0.854029 -2.140420
 H 5.028398 1.580969 -1.911997
 H 5.045753 1.054454 -0.220459
 H 3.484806 2.742120 0.118947