13
charge = 0
 C 1.054701 0.174999 -0.114325
 N 2.498415 0.134354 -0.026179
 C 3.182974 -0.685188 -0.979959
 C 3.215054 0.804365 -1.099346
 C 4.435842 1.538216 -0.700972
 O 4.913072 2.444790 -1.327471
 H 0.640067 -0.648145 0.471109
 H 0.683657 0.089849 -1.147053
 H 0.693344 1.113667 0.309393
 H 2.598483 -1.202687 -1.737750
 H 4.055150 -1.220485 -0.618111
 H 2.646411 1.244951 -1.915007
 H 4.893431 1.171325 0.243171