13
charge = 0
 C 1.055892 0.032022 0.236291
 N 2.465554 0.061945 -0.027894
 C 3.428851 1.150622 -0.131688
 C 4.506162 0.082653 -0.412438
 C 3.364615 -0.932278 -0.269629
 O 3.246007 -2.126272 -0.333144
 H 0.698632 1.052757 0.374403
 H 0.835427 -0.539423 1.142146
 H 0.507618 -0.419107 -0.595305
 H 3.562841 1.715588 0.795537
 H 3.231341 1.841899 -0.956314
 H 5.284972 -0.012347 0.343548
 H 4.953777 0.113639 -1.405301