15
charge = 0
 C 0.962167 0.032658 0.122627
 N 2.395168 0.031088 0.188595
 C 3.072021 1.087358 0.947751
 C 4.142469 0.054385 1.342024
 O 5.275553 0.032562 0.518241
 C 3.067495 -0.991295 0.996592
 H 0.614968 0.903425 -0.439206
 H 0.490250 0.057163 1.121857
 H 0.611125 -0.862016 -0.397725
 H 2.492561 1.427648 1.821377
 H 3.399951 1.955135 0.367943
 H 4.502170 0.077735 2.369073
 H 4.968460 0.011796 -0.394040
 H 2.486649 -1.287654 1.885177
 H 3.391585 -1.886766 0.458215