15
charge = 0
 C 2.130854 -1.280967 0.306262
 N 2.217311 0.132543 0.006395
 C 2.801818 0.915987 1.050663
 C 2.813487 2.431410 0.848339
 O 2.296602 2.656142 2.166104
 C 2.030322 1.259886 2.346952
 H 1.659853 -1.805529 -0.526991
 H 1.566437 -1.517810 1.222369
 H 3.138876 -1.688096 0.424515
 H 1.304182 0.499855 -0.233645
 H 3.795697 0.516081 1.268800
 H 2.113875 2.766322 0.070832
 H 3.780824 2.916122 0.692816
 H 0.955696 1.037153 2.287156
 H 2.424954 0.888590 3.297222