17
charge = 0
 C 1.052078 0.017092 0.086421
 N 2.495905 0.130194 0.047703
 C 3.132937 -0.227643 1.308836
 C 4.648509 -0.180159 1.206113
 C 5.215399 -1.184795 0.215205
 O 4.829786 -0.927678 -1.112169
 H 0.627372 0.366775 -0.856037
 H 0.590174 0.585423 0.908885
 H 0.771941 -1.032103 0.209200
 H 2.756355 1.080160 -0.193064
 H 2.819611 -1.249695 1.554252
 H 2.785642 0.411390 2.138358
 H 5.071390 -0.377134 2.196989
 H 4.971056 0.828510 0.920051
 H 4.912876 -2.199368 0.524513
 H 6.308641 -1.156420 0.243107
 H 3.880127 -0.719049 -1.074374