17
charge = 0
 C 0.898845 0.069213 0.834581
 N 2.099497 -0.031830 0.033433
 C 2.884471 -1.183237 0.417477
 C 1.822403 -0.005067 -1.393040
 C 1.493795 1.405150 -1.849682
 O 2.492327 2.302411 -1.435374
 H 1.165569 0.124414 1.892047
 H 0.226452 -0.795611 0.694611
 H 0.343830 0.974085 0.583246
 H 3.134271 -1.122169 1.479232
 H 3.816593 -1.205456 -0.150372
 H 2.355088 -2.137440 0.248514
 H 1.011312 -0.700254 -1.674922
 H 2.729433 -0.328929 -1.911243
 H 0.507441 1.714957 -1.473451
 H 1.442441 1.432146 -2.941558
 H 2.779431 1.968927 -0.573297