17
charge = 0
 C 1.443331 -0.781845 0.448099
 N 2.835756 -0.658247 0.818542
 C 3.202741 0.637012 1.358998
 C 2.651364 0.834457 2.760506
 C 4.712954 0.737431 1.377692
 O 5.188231 0.607985 0.049291
 H 1.291975 -1.723914 -0.082293
 H 1.081251 0.036763 -0.197311
 H 0.807700 -0.807929 1.336545
 H 3.417677 -0.822398 0.006005
 H 2.828500 1.457403 0.716580
 H 3.004806 0.039994 3.422740
 H 1.560474 0.815737 2.765187
 H 2.963482 1.799301 3.167927
 H 5.110760 -0.063153 2.015728
 H 5.006720 1.704848 1.805404
 H 6.138358 0.480174 0.071361