15
charge = 0
 C 1.381998 -0.029228 -0.395939
 N 2.811840 0.083125 -0.205697
 C 3.169353 0.543232 1.119187
 C 4.671870 0.634196 1.266771
 C 5.142977 0.981485 2.644231
 O 4.427746 1.152377 3.593548
 H 1.168137 -0.326426 -1.424342
 H 0.826293 0.898367 -0.180251
 H 0.987691 -0.808508 0.261986
 H 3.198286 0.710856 -0.900528
 H 2.781084 -0.173434 1.849519
 H 2.713930 1.513475 1.380095
 H 5.102976 1.376981 0.580366
 H 5.143809 -0.316295 0.984267
 H 6.246811 1.071884 2.749188