17
charge = 0
 C 0.924305 -0.111244 -0.536379
 N 2.279936 0.208659 -0.153756
 C 2.883561 -0.795460 0.691135
 C 4.252403 -0.360821 1.147248
 O 4.114623 0.790575 1.944813
 C 5.346603 1.306482 2.363409
 H 0.500137 0.709323 -1.118404
 H 0.253262 -0.312387 0.316106
 H 0.920978 -1.001519 -1.172553
 H 2.306600 1.094651 0.335623
 H 2.987334 -1.725283 0.119981
 H 2.271108 -1.032140 1.580280
 H 4.882747 -0.139994 0.272988
 H 4.732867 -1.166883 1.722464
 H 5.147171 2.191511 2.968342
 H 5.975440 1.593019 1.508981
 H 5.902015 0.578801 2.971933