11
charge = 0
 C 1.175707 -0.329822 -0.394406
 N 2.424921 -0.264320 -0.213333
 O 2.878847 1.032797 -0.234812
 C 4.284958 1.021287 -0.024939
 C 4.772704 2.386980 -0.047137
 C 5.204397 3.505326 -0.060481
 H 0.738850 -1.320901 -0.391612
 H 0.554975 0.551742 -0.547015
 H 4.771504 0.431663 -0.809697
 H 4.511495 0.553005 0.939242
 H 5.583153 4.500034 -0.073101