15
charge = 0
 C 1.886886 0.767762 0.067693
 O 3.087769 0.279667 -0.463209
 C 3.286859 -1.081696 -0.192198
 C 4.612428 -1.523644 -0.743583
 C 5.160091 -0.936180 -1.977090
 N 5.763913 -0.637711 -0.675723
 H 1.823269 1.827209 -0.180909
 H 1.855040 0.655028 1.160068
 H 1.018233 0.248588 -0.359682
 H 2.479760 -1.686517 -0.635534
 H 3.264588 -1.254754 0.896214
 H 4.838562 -2.563476 -0.520182
 H 4.579324 -0.156430 -2.457194
 H 5.770013 -1.541304 -2.638994
 H 5.444166 0.279549 -0.377877