15
charge = 0
 C 4.019247 1.196615 0.383883
 O 2.944588 0.622344 -0.320788
 C 3.258531 -0.295226 -1.254538
 C 4.464228 -0.742519 -1.600438
 C 4.648836 -1.771913 -2.664225
 N 5.495091 -1.254652 -3.733797
 H 3.585939 1.904545 1.088451
 H 4.699360 1.723603 -0.294263
 H 4.584486 0.433691 0.930598
 H 2.357757 -0.669940 -1.731936
 H 5.366841 -0.358651 -1.137930
 H 3.659728 -2.120508 -3.001562
 H 5.159625 -2.646590 -2.244408
 H 5.038318 -0.473372 -4.188651
 H 5.657725 -1.964028 -4.437896