11
charge = 0
 C 1.070081 -0.462062 -0.212192
 O 2.453787 -0.231851 -0.001767
 C 3.123895 0.260152 -1.039177
 C 4.435030 0.522502 -0.971995
 C 5.126551 1.045303 -2.087730
 N 5.706745 1.472331 -2.989022
 H 0.677208 -0.858730 0.721358
 H 0.913997 -1.192467 -1.011002
 H 0.553032 0.470125 -0.456425
 H 2.557709 0.441642 -1.951022
 H 4.991765 0.339055 -0.060626