17
charge = 0
 C 2.384701 1.628893 1.840628
 O 3.470205 2.061639 1.068381
 C 3.228048 2.072054 -0.329332
 C 2.416524 3.282485 -0.752104
 C 4.587269 2.039055 -0.996209
 N 5.284611 0.813163 -0.653881
 H 2.717293 1.595393 2.878846
 H 2.055586 0.624431 1.541203
 H 1.525882 2.309046 1.775641
 H 2.695082 1.147572 -0.599779
 H 2.950302 4.203659 -0.506287
 H 1.445446 3.307912 -0.254330
 H 2.233694 3.263141 -1.829151
 H 5.123831 2.958461 -0.709963
 H 4.439844 2.073216 -2.079922
 H 5.394784 0.771026 0.352269
 H 6.211208 0.802144 -1.059820