13
charge = 0
 C 2.373081 -0.932638 -0.791082
 O 2.240017 0.105667 0.152975
 C 2.804410 1.318935 -0.254971
 C 2.436387 2.385023 0.757555
 C 4.271720 1.208457 -0.390593
 N 5.412488 1.116381 -0.498405
 H 1.862724 -1.801366 -0.378023
 H 3.425186 -1.184586 -0.967886
 H 1.905932 -0.661188 -1.746649
 H 2.421485 1.600404 -1.248956
 H 2.815262 2.111595 1.742585
 H 1.350418 2.468521 0.805449
 H 2.858738 3.348505 0.470312