17
charge = 0
 C 1.478826 1.108268 2.343554
 O 2.858920 0.893179 2.264068
 C 3.194146 -0.157347 1.390204
 C 4.693580 -0.376764 1.431625
 C 5.457820 0.845748 0.933536
 N 5.054841 -0.808877 2.774713
 H 1.310419 1.930821 3.039496
 H 0.952199 0.216774 2.711688
 H 1.055931 1.379292 1.365717
 H 2.874675 0.086072 0.365138
 H 2.684734 -1.081059 1.700084
 H 4.894480 -1.214718 0.752423
 H 5.246080 1.712261 1.563532
 H 5.184915 1.097848 -0.095667
 H 6.534625 0.658594 0.956801
 H 4.762016 -0.099648 3.437549
 H 6.060084 -0.897834 2.858519