15
charge = 0
 C 1.626180 0.258936 -0.931781
 O 3.007501 0.170845 -0.663600
 N 3.323834 1.048259 0.357953
 C 4.564138 1.013623 0.646459
 C 5.548875 0.126593 -0.044003
 C 5.023935 1.920149 1.737022
 H 1.431824 -0.447725 -1.739004
 H 1.350878 1.268520 -1.250462
 H 1.036369 -0.014107 -0.051904
 H 5.256321 -0.921411 0.059633
 H 6.551682 0.259449 0.361662
 H 5.565354 0.337103 -1.116413
 H 4.189068 2.496187 2.134129
 H 5.790148 2.608333 1.365903
 H 5.479784 1.343453 2.548215