13
charge = 0
 C 4.707376 1.012041 -0.579454
 O 5.244482 -0.135986 0.045141
 N 4.551506 -0.399131 1.195063
 C 5.002514 -1.430225 1.794724
 C 4.391127 -1.859683 3.030460
 C 4.803683 -2.924909 3.715821
 H 5.300568 1.163431 -1.480829
 H 4.791625 1.886224 0.071625
 H 3.658793 0.856535 -0.846831
 H 5.844704 -1.989797 1.383134
 H 3.558814 -1.257712 3.382322
 H 5.634602 -3.532052 3.371476
 H 4.325207 -3.222937 4.640236