15
charge = 0
 N 0.974126 0.195484 -0.033361
 C 2.402489 0.101529 0.047802
 C 3.216641 -0.850875 -0.787839
 C 3.239426 0.631808 -1.061425
 C 4.480240 1.424158 -0.773094
 O 4.227900 2.752890 -0.365307
 H 0.536063 -0.605258 0.406489
 H 0.667776 0.210510 -0.998106
 H 2.778175 0.301643 1.046634
 H 2.684644 -1.484017 -1.488289
 H 4.105479 -1.299830 -0.357773
 H 2.693769 0.950986 -1.948436
 H 5.143830 1.404549 -1.650137
 H 5.026672 0.960650 0.052801
 H 3.656780 3.167272 -1.016869