11
charge = 0
 N 0.921256 -0.051474 0.001786
 C 2.272223 0.102304 0.007053
 C 3.096485 1.186989 0.008163
 C 4.423746 0.651666 0.014668
 C 4.308413 -0.690795 0.016988
 O 2.980566 -1.040065 0.012311
 H 0.320500 0.746782 -0.001603
 H 0.522864 -0.969305 0.002744
 H 2.801589 2.223304 0.004796
 H 5.346936 1.209550 0.017262
 H 5.006923 -1.508776 0.021522