11
charge = 0
 N 0.911907 -0.008219 -0.091165
 C 2.282825 -0.011961 -0.086397
 C 3.140986 1.045874 -0.083809
 O 4.434046 0.604450 -0.079395
 C 4.390039 -0.734332 -0.079199
 C 3.111274 -1.179674 -0.083283
 H 0.395652 0.847746 -0.091577
 H 0.402376 -0.867438 -0.090843
 H 2.999945 2.112863 -0.084600
 H 5.338974 -1.245294 -0.075922
 H 2.787365 -2.209017 -0.084091