15
charge = 0
 N 0.956322 -0.097860 0.009444
 C 2.393639 0.003256 0.126969
 C 2.990005 1.109770 1.001765
 C 4.374856 0.563797 1.287535
 O 4.236979 -0.851754 1.337934
 C 2.995125 -1.236588 0.780568
 H 0.574119 0.699728 -0.482068
 H 0.525864 -0.121341 0.927146
 H 2.800533 0.099960 -0.885977
 H 2.406841 1.192657 1.925539
 H 3.004331 2.087244 0.515571
 H 4.793147 0.907469 2.237088
 H 5.079357 0.834875 0.489383
 H 2.324081 -1.599822 1.573218
 H 3.149492 -2.053000 0.070474