15
charge = 0
 N 0.925846 -0.025197 -0.109769
 C 2.359796 0.009900 -0.025110
 C 2.798219 0.123808 1.420217
 O 4.193935 0.119944 1.610603
 C 3.217882 -0.736815 -1.011590
 C 3.109489 0.765128 -1.063617
 H 0.568879 -0.959815 0.047813
 H 0.597498 0.285105 -1.013489
 H 2.316007 -0.676391 2.000573
 H 2.429425 1.072952 1.815764
 H 4.516359 -0.774415 1.479019
 H 2.704479 -1.310681 -1.773945
 H 4.168354 -1.153676 -0.698155
 H 2.547030 1.210854 -1.876452
 H 3.972483 1.333119 -0.738963