11
charge = 0
 N 0.821153 -0.031297 0.038417
 C 1.970597 -0.031662 -0.001417
 C 3.414827 -0.032068 -0.031365
 C 4.160153 0.996661 0.842506
 O 4.971458 -0.030046 1.417647
 C 4.159637 -1.058257 0.845928
 H 3.759257 -0.033875 -1.066101
 H 3.522809 1.485514 1.585867
 H 4.749884 1.743372 0.306900
 H 3.522043 -1.544304 1.590912
 H 4.748992 -1.807047 0.312817