11
charge = 0
 N 4.741549 1.726403 -1.469963
 C 4.216149 0.954855 -0.799831
 C 3.567162 -0.022731 0.061934
 C 4.288571 -1.347913 0.078951
 C 3.558607 -2.584800 0.327053
 O 3.994508 -2.235302 -0.977319
 H 2.539633 -0.170015 -0.281016
 H 3.524537 0.388931 1.075571
 H 5.341748 -1.298530 0.348697
 H 2.482745 -2.547374 0.482623
 H 4.070971 -3.428713 0.780700