15
charge = 0
 N 2.894942 1.335100 0.176908
 C 2.286438 0.016687 -0.001101
 C 2.837556 -0.677119 -1.212878
 C 2.055377 -1.345340 -2.052455
 C 4.329429 -0.563372 -1.419460
 O 5.056621 -0.480822 -0.219504
 H 2.588886 1.756434 1.044464
 H 2.622751 1.959140 -0.573047
 H 1.190442 0.033157 -0.056043
 H 2.555651 -0.578192 0.878705
 H 0.977755 -1.369470 -1.929597
 H 2.466434 -1.895896 -2.892269
 H 4.529314 0.314857 -2.052719
 H 4.694400 -1.436098 -1.965383
 H 4.747414 0.336754 0.200079