15
charge = 0
 N 1.293828 0.043984 0.399678
 C 2.629047 -0.074074 -0.171842
 C 2.939079 -1.465093 -0.711182
 O 2.733234 -2.461502 0.272226
 C 2.826258 1.029094 -1.165828
 C 3.240525 0.906893 -2.419632
 H 1.124941 -0.755133 1.001275
 H 0.604145 0.000113 -0.343196
 H 3.334717 0.113845 0.654491
 H 3.963360 -1.508410 -1.103561
 H 2.255144 -1.706760 -1.529699
 H 3.435025 -2.392278 0.924687
 H 2.572112 2.014162 -0.781021
 H 3.496635 -0.049325 -2.862370
 H 3.342938 1.776484 -3.058434