13
charge = 0
 O 2.464693 -2.044632 -3.031435
 C 2.485861 -0.885563 -2.724867
 C 3.433397 -0.275757 -1.730896
 C 4.422607 -1.234993 -1.142966
 C 5.770173 -1.363348 -1.722560
 N 5.582961 -0.729376 -0.418255
 H 1.764651 -0.168015 -3.175209
 H 2.813612 0.187739 -0.949096
 H 3.938667 0.562950 -2.229773
 H 3.980498 -2.118427 -0.693445
 H 6.011570 -0.736999 -2.576497
 H 6.280573 -2.319307 -1.701401
 H 5.643249 0.279929 -0.507511