11
charge = 0
 O 1.026960 0.019116 0.471541
 C 2.374481 -0.071772 0.067237
 C 2.562248 -1.075750 -1.035385
 C 3.095810 -0.830974 -2.221739
 C 2.915863 1.250261 -0.288156
 N 3.317962 2.286822 -0.578715
 H 0.497824 0.247929 -0.300023
 H 2.915020 -0.410105 0.958254
 H 2.188882 -2.063771 -0.780923
 H 3.472910 0.151452 -2.487246
 H 3.179740 -1.613609 -2.966144