12
charge = 0
 C 0.876240 -0.026493 0.026215
 C 2.364950 -0.083039 0.031291
 C 3.251260 0.955309 0.033104
 C 4.607492 0.540544 0.038131
 C 4.736641 -0.814284 0.040081
 S 3.209309 -1.579613 0.035821
 H 0.547622 1.013898 0.023997
 H 0.447245 -0.511855 0.906857
 H 0.453186 -0.513738 -0.856259
 H 2.935601 1.991383 0.030879
 H 5.449730 1.219960 0.040201
 H 5.641614 -1.402283 0.043781