11
charge = 0
 C 0.849294 0.087709 -0.055747
 C 2.338332 0.070231 -0.051364
 C 3.207408 1.128473 -0.049572
 C 4.547521 0.681796 -0.045320
 N 4.735329 -0.616516 -0.043835
 S 3.272779 -1.357400 -0.047599
 H 0.485516 1.115823 -0.057530
 H 0.440295 -0.414137 0.824483
 H 0.445470 -0.415362 -0.937666
 H 2.901228 2.166220 -0.051214
 H 5.416929 1.330763 -0.043234