11
charge = 0
 C 0.966988 0.046904 0.071931
 C 2.453425 0.132052 0.075642
 C 3.192525 1.278892 0.074436
 S 4.857963 0.907528 0.079854
 C 4.461159 -0.759177 0.083415
 N 3.193069 -1.020489 0.080784
 H 0.512861 1.037846 0.068111
 H 0.613557 -0.496011 0.951838
 H 0.618209 -0.500651 -0.806957
 H 2.842814 2.299547 0.070697
 H 5.233929 -1.516851 0.087548