10
charge = 0
 C 0.999038 -0.025575 0.050224
 S 2.755796 -0.143661 -0.041955
 O 3.169537 -1.363095 0.579711
 O 3.170548 0.176842 -1.372329
 C 3.247151 1.152165 0.980623
 C 3.614530 2.049142 1.688558
 H 0.618987 -0.827948 -0.584686
 H 0.685291 0.944322 -0.332336
 H 0.684462 -0.174242 1.081920
 H 3.948770 2.843860 2.315670