11
charge = 0
 N 1.025854 -0.066188 0.043513
 C 2.396379 -0.013736 0.048316
 C 3.156116 1.128852 0.050116
 S 4.830744 0.775913 0.056120
 C 4.542518 -0.899158 0.056363
 C 3.211301 -1.184087 0.051970
 H 0.476395 0.769150 0.041816
 H 0.549753 -0.945131 0.043397
 H 2.813455 2.152123 0.048180
 H 5.365853 -1.596805 0.059708
 H 2.813932 -2.191632 0.051312