19
charge = 0
 C -1.368737 0.206056 0.562862
 C -1.281830 -1.082599 -0.280765
 C -0.986068 -0.246068 -1.546037
 C 0.446964 -0.311769 -2.063055
 C 1.250773 0.527225 -1.068726
 C 0.312023 1.691946 -0.751108
 C -1.074025 1.058953 -0.691649
 H -0.617988 0.293778 1.352547
 H -2.347974 0.387760 1.008660
 H -0.478916 -1.768057 0.002721
 H -2.210266 -1.653939 -0.327985
 H -1.724078 -0.360350 -2.341515
 H 0.813674 -1.337805 -2.157787
 H 0.502235 0.147608 -3.055980
 H 2.217208 0.849825 -1.462046
 H 1.452416 -0.053048 -0.161790
 H 0.574124 2.218654 0.170881
 H 0.349053 2.422718 -1.566331
 H -1.866980 1.761612 -0.952418