19
charge = 0
 C -1.359063 1.161348 -2.019651
 C -0.395050 0.021054 -2.112346
 C -0.592541 -1.237756 -1.302886
 C -0.799214 -0.972268 0.184024
 C 0.282852 -0.044411 0.714157
 C 0.193517 1.339031 0.078935
 C 0.015039 1.300249 -1.429314
 H -2.186166 1.073362 -1.323005
 H -1.595190 1.710852 -2.922969
 H 0.032839 -0.145540 -3.095973
 H 0.301015 -1.863308 -1.416016
 H -1.429098 -1.816583 -1.709486
 H -0.791588 -1.922283 0.725732
 H -1.785472 -0.526590 0.361501
 H 1.262269 -0.486828 0.494505
 H 0.217091 0.044999 1.802488
 H 1.095716 1.908034 0.319179
 H -0.638962 1.888741 0.533047
 H 0.696413 1.933007 -1.987522