19
charge = 0
 C 1.692263 0.050026 0.608407
 C 2.074419 0.355941 -0.819779
 C 3.362712 1.143385 -1.175624
 C 3.240523 0.489450 -2.568027
 C 2.723843 -0.708030 -1.743145
 C 3.982452 -1.110882 -0.970855
 C 4.468734 0.298354 -0.538871
 H 1.395891 0.962271 1.133985
 H 2.507861 -0.404827 1.174114
 H 0.843398 -0.638798 0.643204
 H 1.225926 0.808929 -1.342387
 H 3.423982 2.225039 -1.049959
 H 2.461242 0.946078 -3.180428
 H 4.155305 0.352469 -3.150944
 H 2.135779 -1.508131 -2.194301
 H 4.702375 -1.626509 -1.610258
 H 3.766739 -1.764405 -0.122737
 H 5.452193 0.546437 -0.944161
 H 4.519261 0.416414 0.545766