19
charge = 0
 C 1.013992 0.361894 -0.149183
 C 2.502361 0.131390 -0.074208
 C 3.042259 -1.086158 -0.761864
 C 3.292000 0.275727 -1.342268
 C 3.113167 0.609001 1.206263
 C 4.403569 0.086258 1.752254
 C 3.111378 -0.252839 2.433327
 H 0.608432 0.020501 -1.104595
 H 0.777423 1.425451 -0.046116
 H 0.495263 -0.174559 0.650570
 H 2.327760 -1.729016 -1.262520
 H 3.882873 -1.614319 -0.329441
 H 2.764296 0.553509 -2.247287
 H 4.296911 0.673222 -1.263878
 H 2.938621 1.667209 1.386434
 H 5.068540 0.791160 2.235759
 H 4.914024 -0.706320 1.219192
 H 2.895504 0.201400 3.392414
 H 2.745828 -1.267009 2.321445