21
charge = 0
 C 1.046416 -0.231595 0.304708
 C 2.516161 -0.051593 -0.060954
 C 2.627483 0.330431 -1.533325
 C 3.177475 1.022073 0.845044
 C 4.491775 0.417167 1.329242
 C 4.142900 -1.057289 1.487217
 C 3.325420 -1.344027 0.231379
 H 0.499936 0.711342 0.206846
 H 0.936213 -0.573469 1.337994
 H 0.564248 -0.966868 -0.346401
 H 2.038068 1.225075 -1.755273
 H 3.665954 0.534258 -1.810335
 H 2.264697 -0.477275 -2.176247
 H 2.532799 1.220475 1.707700
 H 3.308814 1.972960 0.322194
 H 4.865748 0.881269 2.244854
 H 5.269767 0.531163 0.565812
 H 3.528196 -1.195720 2.383918
 H 5.015144 -1.707276 1.588724
 H 2.676856 -2.218258 0.330874
 H 4.005539 -1.546464 -0.602661