23
charge = 0
 C 0.888048 -0.849922 -0.019708
 C 2.368235 -0.526228 -0.133826
 C 2.759865 0.003652 -1.504487
 C 4.239149 0.331361 -1.631278
 C 4.629295 0.860969 -3.002063
 C 6.108721 1.189174 -3.130276
 C 6.485990 1.717296 -4.504143
 H 0.633473 -1.228133 0.973142
 H 0.593575 -1.609097 -0.749887
 H 0.275607 0.037250 -0.204268
 H 2.958977 -1.422699 0.087689
 H 2.643414 0.211208 0.629175
 H 2.168740 0.900972 -1.727396
 H 2.484451 -0.733737 -2.269147
 H 4.829534 -0.566277 -1.408167
 H 4.513788 1.068643 -0.866376
 H 4.039289 1.758797 -3.225884
 H 4.354998 0.124078 -3.767604
 H 6.697132 0.291639 -2.906871
 H 6.381578 1.925565 -2.365434
 H 6.253854 0.986673 -5.284223
 H 7.552516 1.944979 -4.569604
 H 5.935869 2.633039 -4.738673