23
charge = 0
 C 1.953447 0.975788 -0.597433
 C 2.115167 1.437945 0.842424
 C 3.403797 1.017436 1.571808
 C 4.626586 1.573089 0.844354
 C 3.498529 -0.505603 1.639029
 C 3.316242 1.607477 2.990815
 C 4.482857 1.332785 3.927024
 H 1.005366 1.334388 -1.005312
 H 1.949382 -0.113359 -0.681454
 H 2.747454 1.357627 -1.243245
 H 1.262432 1.074730 1.428953
 H 2.053372 2.532660 0.872131
 H 4.696885 1.180380 -0.172426
 H 5.551904 1.301118 1.357017
 H 4.585389 2.664941 0.781192
 H 2.633446 -0.932030 2.156345
 H 3.543037 -0.945710 0.640368
 H 4.398127 -0.825024 2.169775
 H 2.394699 1.234574 3.454283
 H 3.185339 2.692435 2.896854
 H 4.624772 0.264249 4.104241
 H 4.306006 1.800276 4.898617
 H 5.422533 1.735128 3.541729