23
charge = 0
 C 1.724219 0.473354 -0.572333
 C 1.822559 -0.876458 0.121390
 C 2.899196 -1.842300 -0.381792
 C 2.700240 -3.198310 0.289900
 C 4.365448 -1.378393 -0.221491
 C 4.658403 -0.748331 1.134575
 C 4.849696 -0.480042 -1.355237
 H 0.821454 1.001756 -0.255508
 H 1.675920 0.360504 -1.659196
 H 2.572164 1.121646 -0.345035
 H 0.859706 -1.388172 0.012804
 H 1.950203 -0.725628 1.199634
 H 2.731504 -1.984179 -1.458413
 H 1.682060 -3.567833 0.142719
 H 3.389200 -3.945998 -0.111090
 H 2.870250 -3.136114 1.369385
 H 4.967445 -2.294361 -0.283506
 H 4.163467 0.220548 1.242701
 H 4.330816 -1.384011 1.960953
 H 5.731785 -0.580469 1.254534
 H 4.668029 -0.942555 -2.329294
 H 5.925260 -0.301388 -1.268859
 H 4.356947 0.493742 -1.353960