15
charge = 0
 C -0.046709 0.026370 -1.385460
 C 0.012111 -1.109639 -0.337875
 C 1.254818 -0.642607 0.426862
 C 1.220598 0.684891 0.454730
 C -0.045335 1.118968 -0.291093
 C -1.243682 0.619944 0.522665
 C -1.209463 -0.707554 0.494800
 H -0.963650 0.015180 -1.978343
 H 0.835514 0.062598 -2.027944
 H 0.029151 -2.135778 -0.700768
 H 1.972837 -1.300813 0.896919
 H 1.904277 1.358907 0.952753
 H -0.081553 2.158938 -0.610615
 H -1.933432 1.257762 1.058550
 H -1.864871 -1.401957 1.002721