17
charge = 0
 C 0.833184 -1.206469 0.866532
 C 1.129475 -0.401674 -0.354126
 C 0.969450 1.096378 -0.396321
 C -0.242932 1.606202 0.384108
 C -1.469060 0.785151 0.128451
 C -1.403403 -0.505790 -0.190945
 C -0.125044 -1.233351 -0.304268
 H 0.490494 -0.697503 1.759407
 H 1.430560 -2.090944 1.052212
 H 1.920701 -0.787385 -0.989065
 H 0.857561 1.391369 -1.445623
 H 1.876925 1.585277 -0.028643
 H -0.428616 2.652670 0.125227
 H -0.018170 1.609021 1.458222
 H -2.437089 1.267038 0.223519
 H -2.316718 -1.066356 -0.366613
 H -0.145908 -2.147342 -0.886583