17
charge = 0
 C -1.402027 0.697382 0.296877
 C -1.477785 -0.766786 -0.112613
 C -0.282326 -1.602564 0.206629
 C 0.993890 -1.217197 0.315956
 C 1.598690 0.090973 0.107825
 C 1.037373 1.252571 -0.245579
 C -0.407209 1.551283 -0.476534
 H -1.166394 0.756052 1.364308
 H -2.396469 1.137402 0.173435
 H -1.692424 -0.840783 -1.187737
 H -2.345995 -1.219282 0.379329
 H -0.486290 -2.657487 0.373344
 H 1.707100 -1.996992 0.570350
 H 2.678153 0.102560 0.234691
 H 1.711207 2.095105 -0.381163
 H -0.620660 1.486881 -1.552524
 H -0.579043 2.602194 -0.218294