17
charge = 0
 C 0.849203 0.091368 -0.374342
 C 2.195538 0.003548 0.285380
 C 2.720688 -1.290889 0.981816
 C 4.077437 -0.546019 0.851741
 C 3.535176 -0.043669 -0.514318
 C 3.800921 0.676590 1.720411
 C 2.573841 1.035632 1.351698
 H 0.716104 -0.705025 -1.110738
 H 0.725905 1.047809 -0.890592
 H 0.044390 0.004136 0.361295
 H 2.649758 -2.174389 0.340136
 H 2.356487 -1.502934 1.988980
 H 5.034961 -1.054539 0.949096
 H 3.537208 -0.815439 -1.290025
 H 3.926725 0.901560 -0.895390
 H 4.465687 1.117406 2.449782
 H 1.953873 1.852765 1.695371