17
charge = 0
 C 1.044650 -0.151890 -0.194776
 C 2.469737 0.284698 0.025280
 C 3.681685 -0.522993 -0.546566
 C 4.483748 0.796939 -0.367396
 C 3.133707 1.410818 -0.834481
 C 3.045203 0.810543 -2.233485
 C 3.404567 -0.457658 -2.044670
 H 0.823743 -1.054140 0.382498
 H 0.848227 -0.364262 -1.247330
 H 0.347924 0.625006 0.132495
 H 2.638129 0.490670 1.088225
 H 4.006138 -1.468877 -0.113876
 H 5.346932 0.944698 -1.017825
 H 4.726196 1.020850 0.675088
 H 2.891540 2.464536 -0.699500
 H 2.750530 1.319279 -3.140306
 H 3.483743 -1.268236 -2.755065