19
charge = 0
 C 0.916746 0.151904 -0.271681
 C 2.404138 -0.017893 -0.146378
 C 3.171717 -0.764648 -1.194090
 C 3.322523 0.732389 -1.054444
 C 4.621805 1.310819 -0.627725
 C 5.557913 1.636475 -1.750745
 C 4.947575 1.522035 0.644305
 H 0.383555 -0.721198 0.114547
 H 0.626037 0.280316 -1.317876
 H 0.568267 1.029330 0.279890
 H 2.760948 -0.159900 0.868508
 H 2.629678 -1.146200 -2.052132
 H 4.006929 -1.375353 -0.872534
 H 2.830468 1.301270 -1.841179
 H 5.764758 0.745862 -2.352602
 H 6.503765 2.038722 -1.385876
 H 5.109369 2.372735 -2.426125
 H 4.261572 1.305936 1.454693
 H 5.917536 1.924279 0.915043