19
charge = 0
 C 0.663164 0.155903 -0.909667
 C 1.955960 -0.092990 -0.186746
 C 2.771340 -1.314088 -0.493879
 C 3.270107 0.042724 -0.894070
 C 4.461916 0.649259 -0.195242
 C 4.471353 2.141930 -0.263675
 C 5.443748 2.875181 -0.787328
 H -0.164718 -0.386395 -0.444210
 H 0.730742 -0.174387 -1.949733
 H 0.406323 1.218948 -0.915858
 H 1.961286 0.216066 0.855577
 H 2.411019 -1.977477 -1.271719
 H 3.277474 -1.816023 0.322959
 H 3.204822 0.278196 -1.952963
 H 5.391246 0.255320 -0.620624
 H 4.440406 0.334558 0.856441
 H 3.592560 2.640232 0.142870
 H 6.333843 2.416399 -1.207812
 H 5.389628 3.957444 -0.813889