17
charge = 0
 C 1.024072 0.022288 0.114402
 C 2.348062 0.022518 0.097825
 C 3.312138 -1.152649 0.137887
 C 4.623269 -0.359681 0.086367
 C 4.318741 0.683325 -1.010380
 C 3.286799 1.189661 0.034348
 C 4.345003 0.776621 1.093758
 H 0.457241 -0.901375 0.162451
 H 0.459386 0.947620 0.080434
 H 3.189485 -1.822661 -0.717559
 H 3.211564 -1.744228 1.052033
 H 5.553167 -0.926825 0.099907
 H 3.942196 0.331167 -1.973632
 H 5.136649 1.391974 -1.151148
 H 2.853693 2.187787 -0.004504
 H 3.992955 0.511503 2.093472
 H 5.165380 1.494044 1.150848