17
charge = 0
 C 1.537529 0.042942 1.183778
 C 2.304970 0.011829 0.103238
 C 2.833560 -1.230182 -0.571399
 C 4.148647 -0.792492 -1.177577
 C 5.083639 -0.036653 -0.283323
 C 4.171113 0.713696 -1.204989
 C 2.869990 1.212163 -0.615849
 H 1.192785 -0.868550 1.660295
 H 1.220374 0.981039 1.626633
 H 2.149986 -1.538282 -1.372724
 H 2.921601 -2.069816 0.122883
 H 4.567390 -1.368409 -1.993722
 H 6.137272 -0.056905 -0.532535
 H 4.871981 -0.014125 0.781043
 H 4.606399 1.246801 -2.041316
 H 2.195471 1.511152 -1.428222
 H 2.983402 2.073500 0.047476