17
charge = 0
 C 1.383570 0.039942 0.717343
 C 2.444096 -0.124546 -0.065166
 C 2.883210 -1.416486 -0.710599
 C 4.414170 -1.314545 -0.784496
 C 4.701745 0.171108 -0.842749
 C 3.917811 0.981717 -1.816242
 C 3.460015 0.901599 -0.379514
 H 0.721917 -0.786045 0.953029
 H 1.143233 1.005368 1.148570
 H 2.455639 -1.488760 -1.716308
 H 2.538487 -2.292473 -0.159753
 H 4.831909 -1.864008 -1.632473
 H 4.860039 -1.727169 0.125385
 H 5.683638 0.524889 -0.552471
 H 3.332265 0.482435 -2.579664
 H 4.341322 1.928409 -2.128149
 H 3.513435 1.796854 0.227059