17
charge = 0
 C 0.871790 0.116488 -0.075656
 C 2.378741 -0.039071 0.095935
 C 3.039396 1.240508 0.542552
 C 3.574713 1.138569 1.757497
 C 3.456815 -0.238409 2.291955
 C 4.183782 -1.283893 1.486464
 C 2.741113 -1.013792 1.207345
 H 0.636459 0.871918 -0.829488
 H 0.409023 0.425060 0.865234
 H 0.414719 -0.826096 -0.389660
 H 2.803086 -0.372278 -0.860476
 H 3.063973 2.129041 -0.078461
 H 4.078026 1.938298 2.288573
 H 3.283882 -0.411973 3.347336
 H 4.420975 -2.220484 1.977732
 H 4.926792 -0.935234 0.777662
 H 2.024724 -1.784441 1.467176