17
charge = 0
 C 1.072664 0.103308 0.070589
 C 2.558972 0.018204 0.072869
 C 3.315345 -1.092437 0.076473
 C 4.758934 -0.719050 0.077648
 C 4.722900 0.771607 0.074185
 C 3.447632 1.195068 0.071425
 C 2.958926 2.601308 0.067518
 H 0.621322 -0.889707 0.072214
 H 0.705248 0.641426 -0.809004
 H 0.702783 0.645419 0.946689
 H 2.951666 -2.112034 0.078295
 H 5.288711 -1.120162 -0.796731
 H 5.286249 -1.116153 0.955340
 H 5.604005 1.400494 0.073984
 H 3.790469 3.307232 0.067083
 H 2.337284 2.810035 0.944013
 H 2.339772 2.806021 -0.811680