17
charge = 0
 C 1.085259 -0.039432 0.140697
 C 2.566399 -0.074724 0.011516
 C 3.335480 -1.160759 -0.135895
 C 4.792485 -0.840595 -0.235793
 C 4.837858 0.694702 -0.125521
 C 3.397284 1.129850 0.031422
 C 2.958272 2.381860 0.164147
 H 0.659300 -1.042654 0.101430
 H 0.636897 0.556442 -0.660219
 H 0.786031 0.424764 1.085446
 H 2.955277 -2.175848 -0.179849
 H 5.218232 -1.201269 -1.178603
 H 5.365465 -1.330317 0.559289
 H 5.284314 1.149687 -1.012574
 H 5.435472 1.020565 0.728775
 H 3.639019 3.225519 0.169732
 H 1.902366 2.601720 0.271502