17
charge = 0
 C 0.857127 -0.120913 -0.165898
 C 2.372121 -0.053946 0.012335
 C 3.084865 -1.279615 -0.486155
 C 4.003803 -1.003135 -1.403419
 C 4.095760 0.465157 -1.686661
 C 3.036799 1.060607 -0.782329
 C 2.731142 2.347758 -0.699562
 H 0.435376 -0.957359 0.397872
 H 0.599279 -0.253551 -1.219154
 H 0.380933 0.796416 0.186757
 H 2.578194 0.085418 1.082930
 H 2.848397 -2.273522 -0.122478
 H 4.630362 -1.736915 -1.896958
 H 3.910462 0.696184 -2.742277
 H 5.092028 0.863293 -1.458796
 H 3.241190 3.093466 -1.299999
 H 1.959449 2.707687 -0.027410