17
charge = 0
 C 1.010503 0.070174 0.263963
 C 2.512780 -0.010492 0.021067
 C 2.902970 -1.245242 -0.822434
 C 3.430789 -0.669493 -2.098045
 C 3.493135 0.663911 -2.059258
 C 3.018124 1.176396 -0.783966
 C 3.017621 2.451299 -0.393460
 H 0.659326 -0.794317 0.833918
 H 0.470154 0.094368 -0.686409
 H 0.749011 0.973545 0.819109
 H 3.021580 -0.036413 0.988979
 H 2.045858 -1.905971 -0.996854
 H 3.662968 -1.860261 -0.326813
 H 3.733057 -1.281949 -2.939708
 H 3.854653 1.301502 -2.857320
 H 3.384893 3.238317 -1.042225
 H 2.655071 2.748237 0.584346