19
charge = 0
 C 1.077409 0.100310 -0.045941
 C 2.601970 0.047121 0.032467
 C 3.129883 -1.245181 0.682344
 C 3.452148 -0.878522 2.140427
 C 3.602392 0.611539 2.079630
 C 3.158541 1.126053 0.934794
 C 3.132252 2.562194 0.546894
 H 0.694093 -0.687790 -0.699290
 H 0.726403 1.056884 -0.441170
 H 0.633746 -0.034536 0.944710
 H 2.995993 0.157585 -0.985469
 H 4.050062 -1.553648 0.179829
 H 2.421691 -2.072674 0.596624
 H 4.352100 -1.382881 2.504874
 H 2.644941 -1.162480 2.828049
 H 4.000586 1.199396 2.900459
 H 3.561097 3.195942 1.324816
 H 2.110374 2.906055 0.356024
 H 3.695027 2.727923 -0.378261