19
charge = 0
 C 0.957528 0.007880 -0.120692
 C 2.470256 -0.005577 -0.022356
 C 3.075465 1.124565 0.813702
 C 4.489912 0.635448 1.104574
 C 4.296206 -0.855209 1.392301
 C 3.077923 -1.253446 0.586900
 C 2.611318 -2.488794 0.461321
 H 0.603915 0.949222 -0.549334
 H 0.504957 -0.108306 0.867759
 H 0.587323 -0.800821 -0.754558
 H 2.884508 0.087861 -1.037643
 H 2.513080 1.224744 1.750084
 H 3.042835 2.091311 0.306078
 H 4.973761 1.169386 1.924544
 H 5.114202 0.769193 0.215084
 H 4.088760 -1.007381 2.457375
 H 5.172459 -1.461552 1.152270
 H 3.111578 -3.332287 0.925469
 H 1.714424 -2.707425 -0.107399