15
charge = 0
 C 0.810787 0.017257 0.005746
 C 2.148869 0.058437 0.007453
 C 2.903201 1.373325 -0.002436
 C 4.393467 1.258341 0.001537
 C 5.020591 0.081923 0.012504
 C 4.269902 -1.161929 0.021303
 C 2.928268 -1.165983 0.018884
 H 0.209392 0.919613 -0.002665
 H 0.282277 -0.929077 0.012778
 H 2.595251 1.977950 0.859864
 H 2.598795 1.962818 -0.876406
 H 4.959955 2.184072 -0.005027
 H 6.104082 0.037880 0.015004
 H 4.815482 -2.098999 0.030024
 H 2.380672 -2.103117 0.025637