17
charge = 0
 C 0.850043 -0.091863 0.279621
 C 2.166417 -0.060770 0.057433
 C 2.904340 1.203170 -0.288372
 C 4.296071 1.221224 0.331551
 C 5.103069 0.007585 -0.108961
 C 4.308943 -1.254319 0.003169
 C 2.976872 -1.270254 0.106547
 H 0.247102 0.808798 0.248385
 H 0.338893 -1.023859 0.495726
 H 2.322825 2.075361 0.019659
 H 3.003568 1.257574 -1.380629
 H 4.201202 1.210011 1.422624
 H 4.818792 2.143939 0.065775
 H 6.016995 -0.079197 0.487910
 H 5.442635 0.133797 -1.146753
 H 4.854887 -2.193359 0.012743
 H 2.454066 -2.215038 0.225483