19
charge = 0
 C 0.919741 0.070507 -0.080301
 C 2.413602 0.103186 -0.036275
 C 3.097191 1.240332 0.085388
 C 4.591836 1.332435 0.093919
 C 5.249463 0.045776 -0.384986
 C 4.577697 -1.162748 0.247077
 C 3.107351 -1.225879 -0.140999
 H 0.491883 1.073194 -0.031245
 H 0.514146 -0.517791 0.750214
 H 0.565977 -0.407252 -1.000954
 H 2.545572 2.173374 0.180136
 H 4.937857 1.575810 1.108226
 H 4.909448 2.174917 -0.530427
 H 6.319311 0.058823 -0.158639
 H 5.157218 -0.023099 -1.475266
 H 4.660207 -1.088206 1.337768
 H 5.084899 -2.086934 -0.044152
 H 2.580939 -1.954933 0.486600
 H 3.002441 -1.600812 -1.168975