17
charge = 0
 C 0.989788 -0.037771 -0.079501
 C 2.475980 0.001951 -0.077834
 C 3.297713 1.072586 -0.075144
 C 2.942302 2.518712 -0.073089
 C 4.685330 0.598378 -0.074451
 C 4.712705 -0.740400 -0.076678
 C 3.308319 -1.245252 -0.079044
 H 0.554559 0.962381 -0.078271
 H 0.602481 -0.568200 0.797330
 H 0.604371 -0.565218 -0.958960
 H 1.863525 2.678158 -0.073977
 H 3.356567 3.026031 -0.950323
 H 3.354683 3.023071 0.806737
 H 5.547898 1.254765 -0.072416
 H 5.589345 -1.373511 -0.076802
 H 3.097778 -1.875166 0.795636
 H 3.099666 -1.872205 -0.956301