17
charge = 0
 C 0.916093 0.033073 0.069609
 C 2.391582 -0.010387 -0.104703
 C 3.168499 -1.090814 -0.142972
 C 4.617065 -0.763307 -0.332768
 C 4.624278 0.750412 -0.410478
 C 5.696008 1.512033 -0.577684
 C 3.201994 1.245908 -0.265156
 H 0.493185 -0.967607 0.170756
 H 0.434009 0.524363 -0.782485
 H 0.642227 0.612294 0.958055
 H 2.804209 -2.108075 -0.047921
 H 5.029474 -1.216071 -1.242770
 H 5.237193 -1.127818 0.495342
 H 6.687645 1.083125 -0.674804
 H 5.623018 2.593367 -0.623866
 H 2.879645 1.825935 -1.139435
 H 3.087766 1.913568 0.598500