17
charge = 0
 C 0.979073 0.092337 0.058484
 C 2.512626 0.091668 0.057695
 C 3.040316 0.093317 1.497602
 C 3.057143 1.257051 -0.723005
 C 3.781971 0.820437 -1.760873
 C 3.781333 -0.642950 -1.758963
 C 3.056127 -1.076222 -0.719960
 H 0.596252 0.977093 0.573819
 H 0.595482 -0.790734 0.576129
 H 0.589171 0.091174 -0.961180
 H 2.687891 0.978089 2.034155
 H 4.131885 0.092856 1.512269
 H 2.687112 -0.789738 2.036465
 H 2.867562 2.288296 -0.452172
 H 4.291387 1.436707 -2.490925
 H 4.290211 -1.261569 -2.487403
 H 2.865648 -2.106591 -0.446436