17
charge = 0
 C 0.983998 -0.058759 -0.284321
 C 2.477835 -0.053191 0.055180
 C 2.858600 1.186771 0.804040
 C 3.444060 1.190386 1.994941
 C 3.814556 -0.052252 2.734720
 C 3.454287 -1.295370 1.990711
 C 2.868801 -1.292520 0.799821
 H 0.713224 0.825354 -0.867257
 H 0.383792 -0.062782 0.628435
 H 0.720500 -0.943082 -0.870267
 H 3.016734 -0.049339 -0.905540
 H 2.617727 2.132949 0.325312
 H 3.677812 2.137833 2.472653
 H 3.333734 -0.055913 3.723462
 H 4.891510 -0.048198 2.956339
 H 3.695834 -2.242483 2.465199
 H 2.635715 -2.239013 0.317871