17
charge = 0
 C 0.885669 0.025412 -0.297262
 C 2.362596 0.071285 0.099490
 C 3.059890 1.335189 -0.412430
 C 3.454431 1.237700 -1.853691
 C 3.767058 0.055215 -2.388594
 C 3.688402 -1.159683 -1.588156
 C 3.057610 -1.161535 -0.410955
 H 0.344998 0.881564 0.116590
 H 0.409189 -0.886186 0.071278
 H 0.779522 0.043827 -1.384618
 H 2.413768 0.078756 1.193264
 H 3.970544 1.515156 0.178024
 H 2.416127 2.204248 -0.244146
 H 3.535658 2.147999 -2.438763
 H 4.098497 -0.016189 -3.419035
 H 4.132337 -2.070584 -1.975967
 H 2.964413 -2.078772 0.162692