17
charge = 0
 C 2.556836 0.805059 -0.747787
 C 2.393068 -0.166172 0.140991
 C 3.256482 -0.453469 1.303642
 C 4.487550 -1.312624 1.154156
 C 4.629997 0.141150 1.468171
 C 5.062663 0.629490 2.793468
 C 5.659225 -0.086911 3.737195
 H 1.877133 0.919713 -1.583712
 H 3.368039 1.521621 -0.675038
 H 1.547883 -0.842535 0.021790
 H 2.719213 -0.617432 2.233853
 H 4.747275 -1.632145 0.152502
 H 4.692781 -2.037426 1.931876
 H 4.951184 0.766133 0.640072
 H 4.850613 1.679286 2.989144
 H 5.909878 -1.132297 3.591559
 H 5.923161 0.352060 4.692008