15
charge = 0
 C 2.477465 -0.808930 -0.582681
 C 2.117771 0.111660 0.302152
 C 3.024380 1.044070 1.000372
 C 4.408151 1.325401 0.532927
 C 3.349600 2.385974 0.356949
 C 3.372491 3.573762 1.151800
 C 3.389132 4.569709 1.824761
 H 1.741527 -1.441764 -1.064128
 H 3.515380 -0.969949 -0.853947
 H 1.064071 0.218761 0.552151
 H 2.865560 1.115244 2.071853
 H 4.760322 0.840851 -0.368550
 H 5.167885 1.508949 1.281007
 H 2.976012 2.511736 -0.653822
 H 3.404164 5.452726 2.418155