17
charge = 0
 C 1.368835 0.852912 0.619794
 C 2.017896 -0.015296 -0.156980
 C 2.807262 0.335626 -1.318326
 C 3.509123 -0.526195 -2.065104
 C 4.274943 0.150454 -3.156829
 C 3.657606 1.558335 -3.187984
 C 2.999135 1.745955 -1.812500
 H 0.799316 0.522672 1.479957
 H 1.388180 1.919163 0.423055
 H 1.971565 -1.075397 0.082603
 H 3.560444 -1.593315 -1.875992
 H 4.198594 -0.365486 -4.118656
 H 5.345050 0.178790 -2.910130
 H 2.888339 1.594929 -3.963523
 H 4.386141 2.336994 -3.419649
 H 2.059556 2.302304 -1.872506
 H 3.645113 2.298835 -1.118921