17
charge = 0
 C 1.108155 0.640054 0.135185
 C 2.131031 -0.145548 -0.171394
 C 2.988343 -0.869970 0.814713
 C 2.965430 -2.396260 0.545887
 C 4.247141 -2.647755 -0.189012
 C 5.065543 -1.603792 -0.133601
 C 4.476254 -0.469041 0.648183
 H 0.524124 1.138514 -0.629891
 H 0.817628 0.813028 1.167268
 H 2.393701 -0.295871 -1.218697
 H 2.629251 -0.641873 1.820916
 H 2.078794 -2.694380 -0.022325
 H 2.936447 -2.966459 1.482659
 H 4.474484 -3.590653 -0.673258
 H 6.059074 -1.569332 -0.565971
 H 4.581647 0.498281 0.147140
 H 4.973843 -0.367541 1.620608