17
charge = 0
 C 0.763038 0.333678 0.417811
 C 1.996113 0.029978 0.036772
 C 3.161481 0.976888 -0.045814
 C 4.205114 0.730780 1.074166
 C 3.934728 1.812124 2.131435
 C 3.205252 2.866781 1.352544
 C 2.794879 2.418608 0.172184
 H -0.013051 -0.421618 0.462836
 H 0.489434 1.344381 0.702064
 H 2.224025 -1.000440 -0.232661
 H 3.629037 0.829500 -1.027316
 H 5.208034 0.871108 0.663967
 H 4.152214 -0.282673 1.476116
 H 4.856646 2.181840 2.589142
 H 3.308052 1.441818 2.952008
 H 3.015915 3.862341 1.738353
 H 2.217179 2.988996 -0.546116