13
charge = 0
 C 0.993669 -0.084317 -0.083606
 C 2.198052 -0.042584 -0.082733
 C 3.606160 -0.031374 -0.081808
 C 4.426643 1.045650 -0.078491
 C 5.807384 0.600545 -0.078768
 C 5.842845 -0.743033 -0.082232
 C 4.451098 -1.273020 -0.084493
 H -0.069972 -0.110868 -0.084349
 H 4.101373 2.077307 -0.076021
 H 6.663774 1.261982 -0.076507
 H 6.726288 -1.366575 -0.083289
 H 4.242285 -1.901286 0.790121
 H 4.243401 -1.896737 -0.962623