15
charge = 0
 C 0.967413 0.093397 0.139574
 C 2.167194 0.094042 0.078958
 C 3.619474 0.095013 -0.002947
 C 4.146694 -1.138939 -0.786124
 C 4.551702 -0.568202 -2.110228
 C 4.550969 0.758392 -2.110472
 C 4.145338 1.329182 -0.786579
 H -0.095209 0.092752 0.195236
 H 4.009609 0.095433 1.018331
 H 3.383552 -1.916320 -0.869342
 H 5.004986 -1.591240 -0.275612
 H 4.836738 -1.189557 -2.951213
 H 4.835324 1.379742 -2.951688
 H 3.381430 2.105787 -0.870055
 H 5.003176 1.782529 -0.276228