17
charge = 0
 C 1.431208 -0.430648 0.867197
 C 2.593130 -0.049558 -0.045577
 C 3.109182 1.327485 0.208718
 C 4.319989 1.681143 0.675514
 C 4.406047 3.166447 0.788618
 C 3.065169 3.622518 0.316895
 C 2.329909 2.550833 -0.011987
 H 1.066635 -1.434835 0.638683
 H 0.593232 0.261639 0.755115
 H 1.738192 -0.409964 1.915329
 H 2.266552 -0.124040 -1.089913
 H 3.409532 -0.766829 0.076017
 H 5.125377 1.005676 0.933800
 H 5.216323 3.582965 0.175372
 H 4.610890 3.493125 1.816876
 H 2.763249 4.659304 0.255136
 H 1.315173 2.568329 -0.391593