19
charge = 0
 C 1.038903 -0.005699 -0.013204
 C 2.554510 0.105895 0.002633
 C 3.116578 0.802388 1.239903
 C 4.660260 0.726809 1.272740
 C 5.101011 2.101472 0.871610
 C 4.090672 2.961821 0.859164
 C 2.795833 2.315407 1.249009
 H 0.689291 -0.511959 -0.915997
 H 0.554594 0.973478 0.019292
 H 0.680887 -0.577685 0.847783
 H 2.902809 0.638976 -0.890687
 H 2.984409 -0.900203 -0.056105
 H 2.691518 0.315923 2.123185
 H 5.041757 -0.050465 0.601431
 H 5.037506 0.477952 2.272520
 H 6.132549 2.350340 0.649066
 H 4.175388 4.016749 0.623351
 H 1.981428 2.567858 0.562044
 H 2.474108 2.662311 2.238651