19
charge = 0
 C 2.893815 1.470674 0.047529
 C 2.398227 0.038594 -0.060369
 C 2.976567 -0.733419 -1.250382
 C 2.473795 -2.190773 -1.324756
 C 3.609309 -3.065973 -0.766653
 C 4.807023 -2.169833 -0.875974
 C 4.468348 -0.916069 -1.153824
 H 2.417168 1.992945 0.880278
 H 2.674120 2.033006 -0.864984
 H 3.973562 1.511439 0.209971
 H 1.305946 0.037513 -0.148981
 H 2.635316 -0.506129 0.861085
 H 2.707766 -0.184293 -2.161637
 H 2.292905 -2.459672 -2.368193
 H 1.531650 -2.327278 -0.788841
 H 3.727607 -3.998820 -1.325711
 H 3.439161 -3.356155 0.277713
 H 5.821442 -2.516918 -0.713101
 H 5.170963 -0.096971 -1.256561