17
charge = 0
 C 0.925291 0.092529 0.037191
 C 2.376304 0.077172 0.027625
 C 3.580222 0.064471 0.021800
 C 5.012495 0.052100 0.012743
 C 5.761516 -0.669295 -1.084428
 C 5.781294 0.820992 -1.035811
 C 7.031073 1.557657 -0.651819
 H 0.529683 -0.602661 0.782348
 H 0.524362 -0.201332 -0.936416
 H 0.539335 1.088493 0.270309
 H 5.475439 0.020395 0.994741
 H 5.166199 -1.155988 -1.845897
 H 6.662571 -1.199408 -0.798136
 H 5.154986 1.318648 -1.768696
 H 7.594201 1.004520 0.104875
 H 6.801963 2.544955 -0.242250
 H 7.686966 1.696065 -1.515888