17
charge = 0
 C 4.894839 -1.357397 -1.983969
 C 4.336057 -0.730175 -1.125771
 C 3.677156 0.015304 -0.065828
 C 4.179885 -0.350318 1.321636
 C 3.473916 0.268565 2.544003
 C 3.664630 -1.074311 3.274009
 C 3.859127 -1.742330 1.899373
 H 5.386455 -1.911097 -2.748168
 H 2.596802 -0.165101 -0.117927
 H 3.820624 1.088376 -0.239015
 H 5.256870 -0.166393 1.377865
 H 2.417523 0.456316 2.329931
 H 3.905771 1.167747 2.986773
 H 2.849778 -1.431654 3.904847
 H 4.587190 -1.084049 3.858350
 H 2.911982 -2.118920 1.502501
 H 4.612994 -2.523964 1.801692