19
charge = 0
 C 3.485617 2.186160 -0.457920
 C 3.341888 0.745765 -0.074590
 C 3.019476 0.371979 1.160016
 C 3.581534 -0.229164 -1.179827
 C 4.984232 -0.291185 -1.839489
 C 4.771805 -1.804698 -2.020358
 C 3.692837 -1.742839 -0.923351
 H 3.303858 2.849152 0.388820
 H 2.783863 2.447528 -1.257189
 H 4.489387 2.389228 -0.845136
 H 2.846985 1.103054 1.942436
 H 2.910696 -0.671780 1.430731
 H 2.841627 -0.049748 -1.971104
 H 5.763922 -0.083960 -1.101787
 H 5.164912 0.316308 -2.727724
 H 5.626937 -2.461748 -1.857463
 H 4.337934 -2.031666 -2.996713
 H 4.124925 -1.940705 0.060408
 H 2.794967 -2.350981 -1.043057