17
charge = 0
 C 1.734337 -0.930566 -0.171635
 C 2.923434 -0.361811 -0.344154
 C 3.445613 0.775896 0.427720
 C 2.665370 1.786383 0.813228
 C 4.904210 0.715899 0.710119
 C 5.881399 1.288356 -0.284218
 C 5.711727 1.921151 1.062598
 H 1.414853 -1.763791 -0.786416
 H 1.048973 -0.589027 0.596937
 H 3.602090 -0.773970 -1.089081
 H 1.621942 1.828756 0.524049
 H 3.047971 2.600839 1.416286
 H 5.223048 -0.216933 1.167448
 H 5.465731 1.814295 -1.135160
 H 6.789129 0.734425 -0.489173
 H 5.210910 2.879900 1.102251
 H 6.504973 1.801488 1.789701