17
charge = 0
 C 0.895984 -0.198705 -0.028079
 C 2.080883 -0.004786 -0.050536
 C 3.518538 0.201033 -0.086698
 C 4.289782 -1.028910 -0.573417
 C 5.774204 -0.796597 -0.594573
 C 6.576694 -0.976166 0.658851
 C 6.716622 -1.952018 -0.471178
 H -0.154837 -0.364672 -0.006350
 H 3.869472 0.478792 0.913117
 H 3.741410 1.054339 -0.737123
 H 3.933521 -1.302593 -1.571593
 H 4.060313 -1.876318 0.080576
 H 6.097719 0.007916 -1.249550
 H 6.050475 -1.307805 1.546892
 H 7.396339 -0.295888 0.853560
 H 6.285494 -2.938003 -0.342697
 H 7.630887 -1.936627 -1.051091