19
charge = 0
 C 3.758146 2.189039 -0.372720
 C 3.189604 0.805946 -0.316148
 C 2.514916 0.281125 -1.334472
 C 3.411662 0.037821 0.957034
 C 4.866002 -0.185786 1.298903
 C 5.265699 -1.405499 2.069352
 C 5.626627 -1.280154 0.618643
 H 3.495585 2.691818 -1.304192
 H 4.849471 2.169950 -0.293113
 H 3.392403 2.795786 0.462813
 H 2.347347 0.836667 -2.251112
 H 2.103796 -0.721513 -1.283833
 H 2.910783 -0.932322 0.883360
 H 2.934163 0.575969 1.787282
 H 5.429743 0.714108 1.523473
 H 4.484392 -2.107674 2.336614
 H 6.056376 -1.317202 2.804169
 H 5.085294 -1.892362 -0.093431
 H 6.664591 -1.109616 0.361288