19
charge = 0
 C 1.903271 1.239737 0.351662
 C 2.574235 -0.080015 -0.014268
 C 3.057693 -0.834068 1.180399
 C 4.320955 -1.177599 1.406434
 C 4.834523 -1.897754 2.590702
 C 5.371916 -1.131279 3.771060
 C 4.103939 -1.919881 3.894885
 H 1.527634 1.751917 -0.537341
 H 2.604709 1.907483 0.857527
 H 1.056952 1.077434 1.024688
 H 3.411580 0.101777 -0.695065
 H 1.854793 -0.700374 -0.563427
 H 2.298873 -1.106795 1.912960
 H 5.070792 -0.913023 0.660303
 H 5.394733 -2.798475 2.352658
 H 5.285211 -0.052115 3.736439
 H 6.263811 -1.501670 4.261428
 H 3.177581 -1.364818 3.971015
 H 4.123497 -2.835494 4.472641