17
charge = 0
 C 1.169035 -0.242796 -0.197128
 C 2.495837 0.412799 0.177943
 C 3.102954 -0.156518 1.371305
 C 3.590502 -0.638223 2.361885
 C 4.174944 -1.206507 3.540316
 C 4.022182 -2.680486 3.824398
 C 5.353214 -2.141804 3.423947
 H 0.753870 0.218967 -1.095763
 H 0.442684 -0.137955 0.610659
 H 1.303875 -1.308551 -0.390110
 H 2.345327 1.486379 0.336290
 H 3.199319 0.328381 -0.657830
 H 4.172867 -0.556362 4.409120
 H 3.469833 -3.261878 3.098061
 H 3.871599 -2.973259 4.855869
 H 5.708077 -2.355702 2.424426
 H 6.126782 -2.060985 4.177211