13
charge = 0
 C 0.993029 0.257348 0.142251
 C 2.307473 0.076759 0.010535
 C 3.072548 -0.887516 0.893722
 C 3.669859 -1.991836 0.158979
 C 4.155402 -2.906108 -0.447065
 C 3.067556 0.796236 -0.954166
 C 3.744108 1.393343 -1.749023
 H 0.426794 -0.297226 0.881396
 H 0.456963 0.958347 -0.484657
 H 2.395419 -1.279942 1.657389
 H 3.864744 -0.340218 1.417029
 H 4.587553 -3.714275 -0.987936
 H 4.334582 1.921368 -2.459843