17
charge = 0
 C 1.298310 -0.175694 -0.704632
 C 2.265191 -0.660200 0.060132
 C 3.105334 0.156604 1.006871
 C 2.821123 -0.272305 2.426295
 C 3.723983 -0.567725 3.350401
 C 4.553845 0.045063 0.637586
 C 5.338455 1.066425 0.328506
 H 0.720619 -0.815912 -1.361225
 H 1.051031 0.881567 -0.704623
 H 2.488846 -1.725387 0.036306
 H 2.796423 1.205258 0.906474
 H 1.763365 -0.332390 2.673968
 H 4.788462 -0.513576 3.149300
 H 3.423735 -0.862366 4.349259
 H 4.959558 -0.965105 0.621481
 H 4.969716 2.087548 0.333695
 H 6.377595 0.920503 0.056886