15
charge = 0
 C 1.423800 0.585955 0.775545
 C 2.286925 -0.014141 -0.027904
 C 3.047783 -1.267536 0.331332
 C 2.660931 -2.405982 -0.581483
 C 2.064009 -3.514159 -0.173696
 C 4.487751 -1.025091 0.256413
 C 5.667416 -0.820613 0.169251
 H 0.894109 1.479529 0.467156
 H 1.215222 0.207928 1.771448
 H 2.486049 0.385803 -1.018919
 H 2.793490 -1.545423 1.360134
 H 2.901387 -2.265139 -1.632225
 H 1.821244 -3.678622 0.871416
 H 1.796924 -4.299640 -0.870714
 H 6.714262 -0.641379 0.101427