17
charge = 0
 C 1.153456 -0.629656 -1.638259
 C 2.357744 -0.256959 -2.047293
 C 3.139637 0.889922 -1.480765
 C 4.432387 0.444802 -0.875322
 C 5.642958 0.838358 -1.277122
 C 6.882993 0.388421 -0.680807
 C 8.093656 0.782975 -1.074667
 H 0.638322 -1.472778 -2.083787
 H 0.636345 -0.100133 -0.843557
 H 2.848594 -0.814737 -2.842444
 H 2.528136 1.395004 -0.723633
 H 3.347078 1.621637 -2.269869
 H 4.356109 -0.266200 -0.053952
 H 5.725358 1.545164 -2.101967
 H 6.794509 -0.319250 0.141151
 H 8.219238 1.487267 -1.890970
 H 8.993779 0.416642 -0.596738