15
charge = 0
 C 1.330824 -0.870634 -0.125236
 C 2.265317 0.066142 -0.093168
 C 3.043194 0.441236 1.136756
 C 4.482515 0.367205 0.934595
 C 5.672428 0.296265 0.752529
 C 7.070146 0.248837 0.519451
 C 7.894132 -0.663946 1.033784
 H 0.788720 -1.096267 -1.035990
 H 1.074152 -1.448188 0.757498
 H 2.511411 0.621461 -0.994403
 H 2.750274 -0.204439 1.970628
 H 2.784153 1.467426 1.429474
 H 7.472524 1.025199 -0.127308
 H 7.531572 -1.452866 1.681834
 H 8.954431 -0.638331 0.814767