13
charge = 0
 C 1.463600 0.678986 -0.781063
 C 2.376253 0.127673 0.002583
 C 3.169911 -1.095701 -0.363159
 C 4.603414 -0.877863 -0.285008
 C 5.792465 -0.679585 -0.209145
 C 7.135705 -0.460900 -0.127007
 C 8.323502 -0.267244 -0.053565
 H 0.906886 1.554402 -0.468491
 H 1.239604 0.276527 -1.764058
 H 2.590697 0.555667 0.978015
 H 2.902917 -1.425193 -1.372696
 H 2.907920 -1.919385 0.314178
 H 9.371826 -0.096473 0.010124