17
charge = 0
 C 1.339378 0.386077 -1.240396
 C 2.197326 -0.102075 -0.355803
 C 3.013085 -1.337967 -0.540537
 C 4.512875 -1.066384 -0.477719
 C 5.335056 -2.347870 -0.616554
 C 6.767928 -2.116057 -0.555707
 C 7.948397 -1.903107 -0.502560
 H 0.779936 1.294274 -1.048415
 H 1.163352 -0.108791 -2.190906
 H 2.344441 0.429051 0.583814
 H 2.757885 -1.807396 -1.496613
 H 2.754521 -2.061428 0.244196
 H 4.764871 -0.580520 0.469959
 H 4.795286 -0.366800 -1.269246
 H 5.092980 -2.839649 -1.565680
 H 5.053234 -3.053456 0.173504
 H 8.995448 -1.719102 -0.456338