11
charge = 0
 C 0.968108 -0.070402 0.141916
 C 2.163891 -0.056441 0.066719
 C 3.620384 -0.042050 -0.010181
 C 4.127144 0.207495 -1.350847
 C 4.558185 0.413629 -2.458316
 C 5.044728 0.646691 -3.710572
 C 5.475484 0.852658 -4.817235
 H -0.094463 -0.081712 0.203299
 H 4.012226 -1.000719 0.350963
 H 4.012138 0.722539 0.671687
 H 5.854574 1.034611 -5.794841