15
charge = 0
 C 0.996454 -0.010867 -0.133082
 C 2.196432 -0.026266 -0.104648
 C 3.647457 -0.058026 -0.048482
 C 4.179936 -0.780603 1.188320
 C 5.707899 -0.792767 1.211120
 C 6.251273 -1.472254 2.374168
 C 6.680684 -2.037818 3.342021
 H -0.067202 0.005374 -0.161968
 H 4.028384 0.969636 -0.068717
 H 4.029509 -0.544199 -0.953621
 H 3.803865 -1.806062 1.205352
 H 3.802697 -0.292758 2.089974
 H 6.086021 0.235898 1.189211
 H 6.087175 -1.277915 0.304267
 H 7.065615 -2.539072 4.198195