15
charge = 0
 C 1.062178 -0.075651 -0.518252
 C 2.526081 -0.185905 -0.293431
 C 3.162585 -0.708170 0.774479
 C 2.480646 -1.276341 1.936946
 C 3.091589 -1.795791 2.999175
 C 4.591238 -0.712040 0.781847
 C 5.793679 -0.724464 0.806859
 H 0.779695 0.972083 -0.666617
 H 0.461094 -0.474139 0.297058
 H 0.779340 -0.601918 -1.436184
 H 3.153451 0.203494 -1.090134
 H 1.396773 -1.263353 1.910866
 H 4.173033 -1.830122 3.068913
 H 2.521361 -2.200115 3.826439
 H 6.857777 -0.729518 0.817817