17
charge = 0
 C 0.773869 0.161586 -0.348971
 C 2.254300 0.030589 -0.236680
 C 2.950197 -0.912695 0.396664
 C 2.369616 -2.065809 1.148655
 C 4.462143 -0.868284 0.366836
 C 5.068176 -0.756365 1.687141
 C 5.559993 -0.661689 2.778366
 H 0.438101 1.113564 0.074920
 H 0.233498 -0.637740 0.157259
 H 0.463959 0.162689 -1.399013
 H 2.822667 0.812522 -0.737977
 H 1.281166 -2.061073 1.156919
 H 2.720753 -2.059340 2.184829
 H 2.701266 -3.014580 0.712207
 H 4.795753 -0.030520 -0.252101
 H 4.844111 -1.781635 -0.108678
 H 5.999331 -0.574632 3.743643