17
charge = 0
 C 1.063431 0.644857 -0.681518
 C 2.519876 0.651817 -0.374660
 C 3.437240 -0.066736 -1.017568
 C 4.870148 -0.086434 -0.691481
 C 5.304175 -0.130089 0.575801
 C 5.839783 -0.082202 -1.786739
 C 5.555901 0.067280 -3.078993
 H 0.481703 0.322005 0.188298
 H 0.830847 -0.023263 -1.512839
 H 0.708881 1.648697 -0.936648
 H 2.845430 1.306761 0.431548
 H 3.123949 -0.684853 -1.857247
 H 4.614648 -0.182665 1.409301
 H 6.364567 -0.123415 0.802880
 H 6.877545 -0.207232 -1.486641
 H 4.540951 0.212183 -3.431407
 H 6.338915 0.059601 -3.827486