19
charge = 0
 C 0.771060 -1.451208 -0.129350
 C 2.258736 -1.406078 -0.206993
 C 2.957595 -0.709394 -1.095173
 C 4.453256 -0.673359 -1.177799
 C 4.963737 -1.204569 -2.482541
 C 5.663847 -0.507165 -3.369171
 C 6.163951 -1.030658 -4.671898
 H 0.399952 -2.475113 -0.241650
 H 0.312548 -0.836348 -0.906343
 H 0.414412 -1.094732 0.842466
 H 2.800884 -1.995096 0.532589
 H 2.426041 -0.122701 -1.843886
 H 4.867989 -1.259306 -0.349068
 H 4.808740 0.356061 -1.051076
 H 4.713138 -2.241606 -2.704088
 H 5.902408 0.531366 -3.140283
 H 5.878059 -2.074125 -4.818336
 H 7.255100 -0.964228 -4.732563
 H 5.768637 -0.448040 -5.510348