19
charge = 0
 C 0.398735 0.868861 -1.153915
 C 1.875807 0.944890 -0.969914
 C 2.762324 0.142237 -1.546635
 C 4.241757 0.220396 -1.366151
 C 4.986156 0.482799 -2.680790
 C 6.464891 0.560074 -2.498159
 C 7.351008 -0.238493 -3.076618
 H -0.110390 0.696309 -0.200106
 H 0.122613 0.063034 -1.836959
 H 0.000840 1.806816 -1.554610
 H 2.240596 1.725055 -0.301873
 H 2.400851 -0.638633 -2.216863
 H 4.614439 -0.720533 -0.943143
 H 4.484168 1.005916 -0.642641
 H 4.618373 1.426558 -3.101550
 H 4.744109 -0.300777 -3.406255
 H 6.820680 1.336861 -1.822034
 H 7.042537 -1.027446 -3.756278
 H 8.414786 -0.132746 -2.897415