13
charge = 0
 C 0.994017 0.202650 -0.049350
 C 2.481749 0.081583 0.048634
 C 3.110200 -0.846151 0.799514
 C 2.452940 -1.817032 1.585323
 C 1.930331 -2.660746 2.268179
 C 3.249890 1.010317 -0.703044
 C 3.859211 1.817259 -1.356155
 H 0.500503 -0.552207 0.561643
 H 0.672353 0.089201 -1.088012
 H 0.672360 1.194883 0.278016
 H 4.195378 -0.862385 0.812657
 H 1.464966 -3.404712 2.870392
 H 4.409894 2.525241 -1.929189