19
charge = 0
 C 1.078869 0.262138 -0.038967
 C 2.437922 -0.395563 0.167582
 C 2.780009 -0.415220 1.631878
 C 3.811980 0.201237 2.189755
 C 2.550200 -1.794413 -0.406358
 C 3.941736 -2.340572 -0.484951
 C 1.499587 -2.501830 -0.810672
 H 1.102038 1.290815 0.325299
 H 0.294225 -0.264383 0.510470
 H 0.803423 0.274091 -1.095820
 H 3.197997 0.217188 -0.335790
 H 2.095597 -0.988290 2.256495
 H 4.514601 0.779518 1.597047
 H 3.991821 0.154041 3.257725
 H 4.419963 -2.340266 0.498776
 H 4.564587 -1.716779 -1.135275
 H 3.950422 -3.358306 -0.876680
 H 0.488457 -2.116284 -0.769400
 H 1.622956 -3.504413 -1.205614