19
charge = 0
 C 0.838092 -0.260897 -0.047553
 C 2.330288 -0.097974 0.084989
 C 2.901334 -0.825561 1.262068
 C 3.046921 0.638632 -0.790100
 C 2.395239 1.337914 -1.946668
 C 4.490413 0.806248 -0.676001
 C 5.260735 1.517815 -1.502165
 H 0.445955 -0.889544 0.753534
 H 0.559289 -0.729626 -0.995709
 H 0.314525 0.698041 0.004812
 H 2.427337 -0.473565 2.185355
 H 3.977095 -0.724436 1.380308
 H 2.670415 -1.894385 1.189136
 H 1.319863 1.178414 -1.982587
 H 2.816798 0.992813 -2.896127
 H 2.572202 2.417044 -1.897222
 H 4.983428 0.310032 0.152177
 H 4.864389 2.050507 -2.358692
 H 6.329474 1.586948 -1.339275