19
charge = 0
 C 0.997113 0.103701 0.394220
 C 2.424683 -0.107398 -0.007301
 C 2.634167 -1.260520 -0.952710
 C 3.371224 0.708708 0.481850
 C 4.817431 0.755833 0.281337
 C 5.529946 -0.220040 -0.607517
 C 5.516580 1.705143 0.917087
 H 0.594545 -0.793308 0.878764
 H 0.370084 0.285218 -0.486323
 H 0.881402 0.945309 1.078183
 H 1.680824 -1.742164 -1.176901
 H 3.292214 -2.024557 -0.534099
 H 3.067752 -0.943026 -1.903073
 H 3.016756 1.486922 1.154974
 H 5.166839 -0.167981 -1.636440
 H 5.391550 -1.249377 -0.269056
 H 6.599824 -0.009342 -0.616721
 H 5.030639 2.425080 1.566291
 H 6.591537 1.787198 0.805235