17
charge = 0
 C 0.915290 -0.057090 -0.158635
 C 2.445902 0.041716 -0.041568
 C 3.084878 -0.322474 -1.392575
 C 2.815411 1.466076 0.301917
 C 3.474060 1.883098 1.371055
 C 2.909949 -0.898311 0.976534
 C 3.281784 -1.688914 1.800359
 H 0.554012 0.644192 -0.915318
 H 0.438646 0.182625 0.792601
 H 0.620165 -1.066202 -0.452710
 H 2.748495 0.375704 -2.163473
 H 2.796441 -1.332426 -1.690378
 H 4.172721 -0.274086 -1.331189
 H 2.481649 2.189012 -0.440860
 H 3.819955 1.188584 2.129003
 H 3.686632 2.935449 1.518697
 H 3.610810 -2.390652 2.529742