19
charge = 0
 C 0.757335 0.055788 0.217835
 C 2.275122 -0.013933 0.059019
 C 2.967995 0.232198 1.398080
 C 2.685918 -1.331531 -0.513520
 C 3.319723 -1.511941 -1.674138
 C 3.702903 -2.805983 -2.198549
 C 4.335863 -2.993911 -3.356475
 H 0.454454 1.020818 0.632827
 H 0.403170 -0.724850 0.898101
 H 0.251235 -0.079905 -0.740117
 H 2.586095 0.770700 -0.640740
 H 2.696322 -0.541849 2.122398
 H 2.671808 1.197767 1.816636
 H 4.054531 0.223587 1.290429
 H 2.435840 -2.208295 0.086247
 H 3.574345 -0.643849 -2.281092
 H 3.445470 -3.668756 -1.587116
 H 4.608343 -2.157374 -3.992186
 H 4.600805 -3.984571 -3.704738