19
charge = 0
 C 0.997360 0.175523 0.218446
 C 2.491895 0.280894 -0.069519
 C 2.826343 -0.216370 -1.487498
 C 2.546185 -1.667771 -1.690363
 C 1.727958 -2.172908 -2.603109
 C 2.965397 1.689098 0.107289
 C 3.880882 2.089410 0.978077
 H 0.640960 -0.846568 0.073765
 H 0.428200 0.823678 -0.455430
 H 0.774860 0.480254 1.242954
 H 3.033164 -0.350867 0.645921
 H 3.891198 -0.028866 -1.669432
 H 2.269477 0.375747 -2.222568
 H 3.071857 -2.349520 -1.022284
 H 1.181754 -1.532787 -3.289498
 H 1.577437 -3.241774 -2.702712
 H 2.498927 2.426083 -0.547161
 H 4.367478 1.388492 1.650048
 H 4.177567 3.129164 1.054584