17
charge = 0
 C 0.885864 0.135577 -0.218793
 C 2.392845 -0.031530 -0.031342
 C 2.753713 -0.471288 1.401506
 C 2.414771 0.557313 2.427596
 C 1.612639 0.367931 3.465768
 C 2.939866 -0.970993 -1.002164
 C 3.381458 -1.760393 -1.792417
 H 0.492756 0.855280 0.501520
 H 0.375225 -0.817768 -0.064368
 H 0.655388 0.484176 -1.226428
 H 2.872304 0.940005 -0.210446
 H 3.830040 -0.672727 1.431786
 H 2.246168 -1.414163 1.626104
 H 2.882746 1.532626 2.295966
 H 1.124389 -0.586658 3.637027
 H 1.419331 1.155176 4.185316
 H 3.774708 -2.455375 -2.495842