17
charge = 0
 C 0.969220 0.099372 -0.094388
 C 2.417406 0.106147 -0.030235
 C 3.622624 0.111173 0.028502
 C 5.039431 0.120970 0.042313
 C 5.808394 0.047673 1.139366
 C 5.245371 -0.055815 2.516441
 C 7.297682 0.066481 1.035042
 H 0.541726 0.874670 0.547354
 H 0.563523 -0.863006 0.229908
 H 0.622010 0.281254 -1.114708
 H 5.524628 0.194714 -0.928314
 H 4.155795 -0.064697 2.508526
 H 5.584844 0.782711 3.134280
 H 5.600095 -0.967750 3.009006
 H 7.633314 0.143977 0.000043
 H 7.729353 -0.841307 1.470858
 H 7.716175 0.908344 1.597606