15
charge = 0
 C 0.906175 0.052759 -0.121387
 C 2.353384 0.064430 -0.064214
 C 3.558801 0.074199 -0.006088
 C 4.970031 0.084195 0.017615
 C 5.717076 0.126724 1.134481
 C 7.158635 0.135868 1.124015
 C 7.915359 0.178060 2.222550
 H 0.486248 0.920249 0.395075
 H 0.502238 -0.845367 0.354008
 H 0.553755 0.073341 -1.155592
 H 5.472097 0.054954 -0.947832
 H 5.222744 0.156089 2.101936
 H 7.636966 0.105954 0.147141
 H 7.470588 0.208635 3.211934
 H 8.996814 0.183321 2.166869