13
charge = 0
 C 0.961999 -0.040202 -0.096576
 C 2.409150 0.002794 -0.099642
 C 3.614953 0.045955 -0.093620
 C 5.025090 0.064396 -0.123254
 C 5.785670 0.808156 0.699285
 C 7.196844 0.818527 0.660347
 C 8.400746 0.850985 0.654092
 H 0.584387 -0.404186 0.862803
 H 0.587226 -0.702554 -0.880573
 H 0.541443 0.954948 -0.264483
 H 5.511723 -0.566837 -0.862063
 H 5.308374 1.442093 1.440874
 H 9.464616 0.873805 0.641850