15
charge = 0
 C 0.981679 0.107787 0.080920
 C 2.430603 0.078935 0.081844
 C 3.634543 0.039062 0.084000
 C 5.061528 0.017069 0.085157
 C 5.733322 -1.143458 0.143132
 C 5.779422 1.292027 0.021471
 C 5.208095 2.491051 -0.037735
 H 0.584362 -0.201537 1.051313
 H 0.577848 -0.568497 -0.676975
 H 0.607892 1.112549 -0.130656
 H 5.218088 -2.093672 0.190729
 H 6.817142 -1.152053 0.143450
 H 6.863031 1.208162 0.025138
 H 4.128945 2.598041 -0.042356
 H 5.804389 3.394015 -0.082824