19
charge = 0
 C 0.965566 0.097973 0.014300
 C 2.417222 0.099215 0.013822
 C 3.620615 0.099798 0.013764
 C 5.086314 0.098994 0.014167
 C 5.593569 -1.176943 0.695664
 C 5.595491 0.146481 -1.430671
 C 5.595426 1.326333 0.778341
 H 0.571296 0.893923 0.651307
 H 0.572968 -0.852220 0.385551
 H 0.571343 0.250929 -0.993675
 H 5.241538 -2.065805 0.168301
 H 5.242693 -1.232454 1.728083
 H 6.687122 -1.189026 0.701202
 H 5.244720 -0.719555 -1.995416
 H 6.689042 0.146869 -1.442028
 H 5.244803 1.047985 -1.936900
 H 5.244054 1.314271 1.811992
 H 5.245319 2.248687 0.310621
 H 6.689079 1.335554 0.785165