13
charge = 0
 C 0.922891 -0.071064 0.045599
 C 2.367974 -0.061800 0.065250
 C 3.577077 -0.054410 0.082144
 C 4.936400 -0.046846 0.099818
 C 6.148844 -0.036530 0.124123
 C 7.560001 -0.043402 0.109545
 C 8.329116 0.393800 1.108999
 H 0.517936 0.709389 0.695466
 H 0.534363 -1.032916 0.391502
 H 0.544604 0.101032 -0.965714
 H 8.025514 -0.437888 -0.791174
 H 7.900000 0.792808 2.020153
 H 9.408601 0.359307 1.031190