19
charge = 0
 C 6.163751 0.962574 3.827565
 C 5.782921 0.603855 2.473530
 C 5.464691 0.312321 1.350620
 C 5.080376 -0.057974 -0.002765
 C 5.626550 -1.417797 -0.461350
 C 5.057403 -1.771878 -1.826803
 C 7.146676 -1.429615 -0.477034
 H 5.415118 0.627404 4.550062
 H 6.267946 2.045655 3.932244
 H 7.119310 0.507949 4.101703
 H 5.422932 0.715589 -0.702241
 H 3.986653 -0.068705 -0.073042
 H 5.283993 -2.165775 0.263469
 H 5.365257 -1.037576 -2.578416
 H 3.964433 -1.797409 -1.813137
 H 5.411597 -2.751018 -2.158056
 H 7.531126 -0.704595 -1.202241
 H 7.527687 -2.414504 -0.758263
 H 7.553970 -1.172111 0.502757