15
charge = 0
 C 0.997525 -0.099091 0.005175
 C 2.448605 -0.107857 0.006103
 C 3.651069 -0.120218 -0.000922
 C 5.104532 -0.119516 0.013357
 C 5.674365 0.688895 1.190659
 C 7.126581 0.691128 1.206694
 C 8.327061 0.678630 1.199114
 H 0.609132 0.566427 0.780207
 H 0.598271 -1.099204 0.191719
 H 0.607762 0.244038 -0.956495
 H 5.487259 0.295934 -0.923797
 H 5.478193 -1.146351 0.070970
 H 5.296701 0.273914 2.129775
 H 5.305509 1.717276 1.134457
 H 9.391234 0.672095 1.198983