19
charge = 0
 C 2.482766 0.316320 1.682574
 C 3.091113 -0.305249 0.427865
 C 3.451826 0.720373 -0.591215
 C 4.645692 0.973756 -1.150216
 C 5.901132 0.220771 -0.839317
 C 4.732911 2.051367 -2.131024
 C 5.828413 2.431732 -2.788388
 H 2.177474 -0.454024 2.394468
 H 1.600489 0.913305 1.437220
 H 3.199291 0.974429 2.179278
 H 2.357844 -0.993425 -0.012316
 H 3.954487 -0.915143 0.700300
 H 2.621922 1.351241 -0.909977
 H 5.750833 -0.547611 -0.083523
 H 6.679426 0.900552 -0.480001
 H 6.293411 -0.263875 -1.738547
 H 3.800126 2.576481 -2.325902
 H 6.788316 1.949957 -2.641907
 H 5.795739 3.246153 -3.501782