17
charge = 0
 C 1.688581 1.508932 0.092634
 C 2.390987 0.158115 -0.019635
 C 3.080447 -0.009590 -1.329431
 C 4.381537 -0.243346 -1.555565
 C 5.443181 -0.398795 -0.505141
 C 4.842089 -0.367568 -2.900376
 C 5.276948 -0.480645 -4.017235
 H 1.144678 1.589618 1.036439
 H 0.971201 1.647938 -0.720142
 H 2.408078 2.329212 0.042831
 H 1.641232 -0.636965 0.081353
 H 3.084460 0.031016 0.813752
 H 2.440929 0.080632 -2.204948
 H 5.054079 -0.255315 0.501520
 H 6.248084 0.321718 -0.671437
 H 5.891276 -1.394430 -0.563130
 H 5.646723 -0.578028 -5.010180