19
charge = 0
 C 1.800561 1.194557 0.461759
 C 2.954723 0.391685 -0.131101
 C 3.113982 -0.946208 0.506299
 C 4.212206 -1.378432 1.130837
 C 4.344880 -2.678802 1.750829
 C 5.444810 -3.109552 2.373074
 C 5.598107 -4.441923 3.016938
 H 1.686180 2.154662 -0.046910
 H 1.965695 1.388911 1.523938
 H 0.855806 0.652522 0.367279
 H 3.889124 0.953885 -0.039252
 H 2.775325 0.260581 -1.206048
 H 2.249026 -1.608438 0.458633
 H 5.079872 -0.721638 1.186530
 H 3.477589 -3.335955 1.696004
 H 6.305366 -2.443422 2.420844
 H 4.690498 -5.040700 2.918546
 H 5.827089 -4.342825 4.083425
 H 6.427061 -5.003810 2.573386