19
charge = 0
 C 2.274467 0.754094 -1.437490
 C 3.323005 0.131072 -0.520866
 C 3.109106 0.472952 0.914753
 C 3.992652 1.106406 1.688669
 C 3.805571 1.457486 3.091574
 C 2.516418 1.093758 3.760615
 C 4.777800 2.092568 3.754314
 H 2.433809 0.456839 -2.476577
 H 2.309644 1.844697 -1.386117
 H 1.266519 0.441121 -1.152169
 H 4.324883 0.446549 -0.827442
 H 3.289800 -0.959556 -0.639108
 H 2.147361 0.181779 1.334100
 H 4.949323 1.395891 1.256336
 H 2.353974 0.011969 3.739666
 H 1.664692 1.555133 3.251993
 H 2.511351 1.420201 4.800737
 H 5.711203 2.354231 3.267806
 H 4.669012 2.366910 4.797285