17
charge = 0
 C 1.981535 -1.779676 -0.164117
 C 2.542938 -0.365036 -0.054319
 C 3.047953 -0.052537 1.311605
 C 4.305159 0.300456 1.593567
 C 4.790149 0.592631 2.892898
 C 5.238040 0.848348 3.983000
 C 5.765059 1.152744 5.298279
 H 1.584974 -1.967329 -1.164497
 H 1.170644 -1.937789 0.551680
 H 2.754665 -2.523431 0.041126
 H 1.751366 0.349285 -0.314229
 H 3.345317 -0.220309 -0.784101
 H 2.333783 -0.132338 2.128934
 H 5.025978 0.377747 0.780941
 H 5.869017 0.245697 5.900223
 H 5.104817 1.837013 5.837858
 H 6.749595 1.622033 5.227553