17
charge = 0
 C 1.723504 -1.438601 -0.239068
 C 2.501004 -0.180207 0.131876
 C 2.911328 0.612850 -1.064221
 C 4.161552 0.902935 -1.397453
 C 4.549701 1.705429 -2.606202
 C 5.483259 1.002865 -3.476084
 C 6.256945 0.413843 -4.179926
 H 1.408985 -1.984298 0.653453
 H 2.333452 -2.107668 -0.850162
 H 0.825864 -1.192125 -0.812501
 H 3.387562 -0.444367 0.716192
 H 1.875201 0.445314 0.780383
 H 2.103694 0.958796 -1.710533
 H 4.982166 0.552589 -0.774874
 H 5.015848 2.648183 -2.291948
 H 3.654480 1.976269 -3.174832
 H 6.939964 -0.107506 -4.807602