19
charge = 0
 C 1.085279 0.511308 -0.129406
 C 2.510264 0.037563 0.078693
 C 2.744459 -1.441280 -0.028490
 C 1.781557 -2.327696 -0.261669
 C 4.179272 -1.878446 0.140190
 C 5.054963 -1.451909 -0.998408
 C 6.125493 -0.677644 -0.891495
 H 1.025099 1.597274 -0.032251
 H 0.405312 0.074310 0.605918
 H 0.717958 0.245831 -1.123663
 H 2.866139 0.361359 1.066222
 H 3.177402 0.538949 -0.633132
 H 0.747379 -2.034560 -0.396370
 H 2.000871 -3.388250 -0.323406
 H 4.205669 -2.970029 0.223193
 H 4.584072 -1.470920 1.074021
 H 4.761009 -1.821903 -1.979223
 H 6.447645 -0.286565 0.069010
 H 6.721658 -0.410683 -1.756537