17
charge = 0
 C 2.857706 -0.014581 1.577399
 C 2.470024 -0.107289 0.113349
 C 3.048684 -1.344873 -0.597603
 C 2.556396 -1.430539 -2.016713
 C 1.762140 -2.384083 -2.477531
 C 4.508724 -1.339105 -0.570730
 C 5.709503 -1.315929 -0.566116
 H 2.419900 0.872661 2.039706
 H 3.941894 0.043134 1.694407
 H 2.507178 -0.887736 2.134875
 H 2.802088 0.787689 -0.422293
 H 1.381935 -0.152318 0.009995
 H 2.704088 -2.237742 -0.060567
 H 2.886522 -0.629866 -2.674746
 H 1.427018 -3.199963 -1.844363
 H 1.420259 -2.387268 -3.505855
 H 6.773660 -1.304985 -0.561736