17
charge = 0
 C 2.092435 -1.586989 -0.156037
 C 2.729120 -0.220225 0.082736
 C 3.086067 0.509915 -1.177016
 C 1.967717 0.878612 -2.093054
 C 4.366375 0.810595 -1.444806
 C 4.820030 1.494942 -2.598863
 C 5.244004 2.073476 -3.566734
 H 1.879000 -2.081058 0.794221
 H 2.760277 -2.233258 -0.730561
 H 1.150873 -1.505579 -0.702964
 H 3.625530 -0.336660 0.697684
 H 2.030029 0.398626 0.659964
 H 1.494669 -0.014993 -2.512227
 H 2.313587 1.498802 -2.919329
 H 1.187540 1.419459 -1.547158
 H 5.135487 0.516114 -0.735000
 H 5.614161 2.584120 -4.423655