19
charge = 0
 C 2.815914 0.162957 -1.338525
 C 2.421215 -0.016230 0.115786
 C 2.967565 1.072202 1.048852
 C 2.423655 0.912757 2.474508
 C 2.821028 2.035183 3.415346
 C 4.426045 1.089197 1.040637
 C 5.627604 1.078717 1.043622
 H 2.397935 -0.633220 -1.958403
 H 3.901530 0.147532 -1.456266
 H 2.451531 1.116318 -1.731786
 H 2.763908 -0.990006 0.480663
 H 1.329994 -0.013243 0.208304
 H 2.627530 2.045182 0.666003
 H 2.766276 -0.048601 2.871008
 H 1.332260 0.852757 2.406780
 H 3.906883 2.103321 3.509928
 H 2.404817 1.875838 4.412456
 H 2.456729 3.000974 3.053601
 H 6.691810 1.076528 1.043417