17
charge = 0
 C 1.014646 -0.054808 0.110257
 C 2.538190 0.016688 0.027716
 C 3.041185 1.375288 -0.088753
 C 3.435074 2.512555 -0.176066
 C 3.924398 3.834671 -0.321390
 C 3.703525 4.826987 0.545128
 C 4.218780 6.212117 0.385439
 H 0.685918 -1.092689 0.197146
 H 0.557359 0.377975 -0.781023
 H 0.647074 0.496199 0.977538
 H 2.890278 -0.567768 -0.829220
 H 2.977809 -0.452278 0.915277
 H 4.519967 4.033752 -1.211024
 H 3.107587 4.618227 1.430248
 H 4.803435 6.320289 -0.530083
 H 4.851710 6.495964 1.232746
 H 3.397667 6.936033 0.355963