19
charge = 0
 C 1.024014 -0.127169 -0.017647
 C 2.549629 -0.072431 -0.049680
 C 3.063355 1.100893 -0.741120
 C 3.460532 2.079949 -1.318254
 C 3.965775 3.260184 -2.014039
 C 4.803181 4.134335 -1.080250
 C 4.754883 2.868105 -3.263388
 H 0.683797 -1.021213 0.509511
 H 0.615970 -0.148279 -1.029631
 H 0.615691 0.748142 0.490438
 H 2.940971 -0.973702 -0.534014
 H 2.940818 -0.084904 0.973464
 H 3.096110 3.847707 -2.335578
 H 5.686088 3.589918 -0.737067
 H 4.229191 4.435214 -0.202424
 H 5.136876 5.034866 -1.601978
 H 5.635949 2.282526 -2.990460
 H 5.088746 3.761717 -3.796770
 H 4.146323 2.267343 -3.941111