17
charge = 0
 C 1.391801 -0.327387 -0.027760
 C 2.879610 -0.132813 0.207939
 C 3.481841 0.917479 -0.720431
 C 4.963924 1.102025 -0.534368
 C 5.502794 2.239493 -0.088310
 C 5.789973 -0.016229 -0.854741
 C 6.450918 -0.979738 -1.142827
 H 0.977022 -1.077080 0.649627
 H 1.194435 -0.658946 -1.051056
 H 0.839395 0.603468 0.129404
 H 3.407160 -1.081015 0.065759
 H 3.058438 0.166359 1.246023
 H 2.987368 1.880661 -0.562308
 H 3.289894 0.624902 -1.759536
 H 4.876218 3.091032 0.151312
 H 6.572220 2.345632 0.043624
 H 7.048770 -1.823736 -1.393520