19
charge = 0
 C 0.923685 -0.044131 -0.033475
 C 2.422976 0.174901 0.078425
 C 3.219128 -0.764215 -0.811224
 C 4.738981 -0.581101 -0.725093
 C 5.476314 -1.650606 -1.531583
 C 5.142783 0.753899 -1.152953
 C 5.476896 1.845391 -1.527606
 H 0.370623 0.638633 0.615442
 H 0.648930 -1.064837 0.247958
 H 0.577416 0.118975 -1.057932
 H 2.738325 0.038387 1.119648
 H 2.668114 1.209451 -0.181297
 H 2.909902 -0.637114 -1.855139
 H 2.992694 -1.802934 -0.543320
 H 5.029170 -0.686104 0.328957
 H 5.207434 -1.586143 -2.588253
 H 5.209083 -2.645997 -1.169005
 H 6.557577 -1.530524 -1.450041
 H 5.775269 2.813278 -1.854110