19
charge = 0
 C 0.970043 -0.019128 -0.076127
 C 2.488281 -0.020445 -0.071728
 C 3.070246 0.099769 -1.480963
 C 4.524682 0.103699 -1.507588
 C 5.728146 0.104212 -1.511205
 C 7.183597 0.107761 -1.497013
 C 7.767430 0.224649 -0.091154
 H 0.570310 -0.102783 0.936782
 H 0.574271 -0.855728 -0.659019
 H 0.575964 0.902875 -0.513176
 H 2.864679 -0.938454 0.388958
 H 2.865346 0.805982 0.537827
 H 2.696650 1.017859 -1.950012
 H 2.698982 -0.727040 -2.098312
 H 7.545599 0.935489 -2.116633
 H 7.548909 -0.808744 -1.973111
 H 7.440822 1.149060 0.388416
 H 8.859036 0.223116 -0.128425
 H 7.443419 -0.609649 0.533484