16
charge = 0
 C -0.853544 0.000280 -1.222738
 C -0.595829 1.018576 -0.099081
 C -1.335178 -0.000409 0.818281
 C -0.595604 -1.018660 -0.099716
 C 0.854349 -0.740075 0.330392
 N 1.760365 0.000360 -0.528991
 C 0.854179 0.740036 0.330864
 H -0.231832 0.000628 -2.120851
 H -1.901465 0.000256 -1.522627
 H -0.905758 2.059413 -0.183491
 H -2.420330 -0.000487 0.688944
 H -1.072921 -0.000711 1.879155
 H -0.905303 -2.059513 -0.184776
 H 1.308463 -1.351049 1.101830
 H 1.483373 0.000642 -1.503082
 H 1.308156 1.350623 1.102689