15
charge = 0
 C -1.021989 -0.000709 -1.077820
 C -0.617497 1.029042 0.002655
 C -1.054442 -0.035028 1.036194
 C -0.594975 -1.062144 -0.030961
 C 0.906662 -1.074029 -0.008269
 N 1.569389 0.023832 0.019577
 N 0.818129 1.131339 0.026685
 H -0.495366 0.026064 -2.032398
 H -2.101318 -0.002231 -1.229191
 H -1.061624 2.024237 0.011988
 H -2.137904 -0.040934 1.154266
 H -0.557350 -0.039461 2.006834
 H -1.038996 -2.056370 -0.053917
 H 1.478107 -1.995063 -0.014663
 H 1.306894 2.003866 0.046231