15
charge = 0
 C -1.330571 0.658246 0.004583
 C -1.061476 -0.829838 -0.140863
 N -0.225804 -1.412585 0.905745
 C 0.387853 -1.039128 -0.368162
 C 1.057634 0.310288 -0.380790
 N 0.994211 1.044625 0.882118
 C 0.016241 1.341511 -0.161282
 H -1.796490 0.898050 0.963594
 H -2.003265 0.985201 -0.793494
 H -1.809573 -1.455817 -0.616886
 H -0.364894 -2.417791 0.928897
 H 0.762947 -1.813230 -1.027616
 H 1.895257 0.470420 -1.049857
 H 1.710172 1.764093 0.888783
 H 0.058368 2.308265 -0.652860