16
charge = 0
 C -1.346943 0.675145 0.820912
 C -1.274480 -0.426913 -0.184195
 N -0.247936 -1.436662 -0.040809
 C 1.037412 -0.837137 -0.327867
 C 1.603409 0.151666 0.637517
 C 0.852869 0.643423 -0.571456
 C -0.624156 0.905488 -0.479585
 H -0.784058 0.585255 1.740949
 H -2.306307 1.166148 0.935996
 H -2.190509 -0.755818 -0.661466
 H -0.421421 -2.184695 -0.696433
 H 1.720878 -1.449971 -0.904393
 H 2.679411 0.281288 0.626162
 H 1.158523 0.240793 1.620123
 H 1.400056 1.170534 -1.342744
 H -1.046128 1.604537 -1.190511