18
charge = 0
 C -1.254509 -0.784164 -0.519826
 C -1.256781 0.767810 -0.519453
 C 0.001129 1.093621 0.297270
 C -0.014415 -0.009255 1.351042
 C -0.006404 -1.129795 0.304906
 C 1.227254 -0.738687 -0.507114
 N 1.211705 0.739778 -0.450938
 H -1.208472 -1.208130 -1.525886
 H -2.154291 -1.179752 -0.042270
 H -2.157453 1.171055 -0.047002
 H -1.201364 1.194168 -1.524487
 H 0.051942 2.118575 0.668981
 H -0.915925 -0.000848 1.967069
 H 0.872181 0.004461 1.987383
 H 0.016241 -2.152325 0.683282
 H 1.173857 -1.119414 -1.532784
 H 2.148109 -1.128033 -0.057533
 H 1.199996 1.145357 -1.377129