18
charge = 0
 C 1.862387 0.086182 -0.731065
 C 1.830864 -0.092100 0.759082
 C 0.554135 0.019047 -0.010271
 C -0.351274 1.236514 0.143608
 C -1.724702 0.698341 -0.239411
 N -1.661040 -0.672142 0.243785
 C -0.370170 -1.177117 -0.200489
 H 2.152483 -0.765084 -1.337404
 H 2.181237 1.044696 -1.124565
 H 2.121675 0.749454 1.377980
 H 2.103930 -1.060755 1.161850
 H -0.041589 2.076945 -0.480994
 H -0.362949 1.570526 1.184420
 H -1.858896 0.761705 -1.333434
 H -2.545790 1.242373 0.233117
 H -2.429903 -1.237915 -0.090451
 H -0.373809 -1.473721 -1.263740
 H -0.065469 -2.045858 0.389872