18
charge = 0
 C -1.801789 0.692876 0.342655
 C -1.760473 -0.711275 -0.349885
 C -0.269619 -0.700137 0.036857
 N 0.993685 -1.118987 -0.538767
 C 1.896622 -0.074933 0.033944
 C 1.041930 1.156973 0.559342
 C -0.301732 0.798227 -0.031660
 H -1.966271 0.594287 1.417829
 H -2.483531 1.440650 -0.061911
 H -1.917171 -0.610614 -1.426847
 H -2.394554 -1.507674 0.040625
 H -0.238071 -0.981355 1.099558
 H 0.953184 -0.988617 -1.543876
 H 2.624969 0.231108 -0.719205
 H 2.455344 -0.510540 0.865100
 H 1.459019 2.109900 0.228065
 H 1.022427 1.157216 1.651771
 H -0.287469 1.056283 -1.099804