18
charge = 0
 C -0.827234 0.026947 -1.204006
 C -0.635666 1.059930 -0.068804
 C -1.190505 -0.016771 0.884583
 C -0.591135 -1.037278 -0.098111
 N 0.817342 -1.226334 0.227033
 C 1.621400 -0.045178 -0.082539
 C 0.852494 1.240730 0.230510
 H -0.158173 0.052590 -2.067479
 H -1.861822 0.008069 -1.551805
 H -1.157864 2.016533 -0.136913
 H -2.282311 -0.042169 0.881348
 H -0.811639 -0.041984 1.908401
 H -1.070565 -2.012942 -0.193902
 H 1.184111 -2.024780 -0.273625
 H 1.904013 -0.019670 -1.145055
 H 2.554027 -0.084059 0.487139
 H 1.275381 2.054795 -0.365719
 H 0.970638 1.520183 1.282442