15
charge = 0
 C 0.905305 -1.175173 0.826002
 C 1.193447 -0.331897 -0.345112
 C 0.980497 1.153905 -0.360474
 C -0.285003 1.553641 0.387274
 N -1.428159 0.697893 0.138801
 C -1.221969 -0.513629 -0.147931
 N 0.008843 -1.190976 -0.342980
 H 0.530069 -0.698236 1.725812
 H 1.458477 -2.093729 0.987606
 H 1.954003 -0.695896 -1.031136
 H 0.889668 1.466731 -1.405938
 H 1.851371 1.673808 0.049491
 H -0.565810 2.577579 0.128694
 H -0.106340 1.561383 1.468987
 H -2.084089 -1.163913 -0.296215