15
charge = 0
 C 0.904577 -1.190244 0.805767
 C 1.222030 -0.307139 -0.333444
 C 1.053358 1.183676 -0.336346
 C -0.247371 1.613843 0.323089
 C -1.340608 0.612650 0.130169
 N -1.231962 -0.623074 -0.132535
 N 0.042635 -1.183931 -0.378390
 H 0.483151 -0.741588 1.700110
 H 1.470984 -2.100332 0.971552
 H 1.988413 -0.665787 -1.015486
 H 1.046230 1.509622 -1.381104
 H 1.912859 1.669826 0.133320
 H -0.573979 2.587682 -0.051154
 H -0.113113 1.746426 1.403613
 H -2.365213 0.954061 0.277430