18
charge = 0
 C -0.818437 0.008087 -1.145536
 C -0.632876 1.094832 -0.072882
 C -1.146486 0.006927 0.875033
 N -0.665448 -1.032240 -0.081480
 C 0.760801 -1.251119 0.173914
 C 1.631633 0.004728 -0.032217
 C 0.852270 1.309203 0.203121
 H -0.109250 -0.051823 -1.974625
 H -1.835655 -0.026633 -1.542820
 H -1.185607 2.034008 -0.156894
 H -2.236830 -0.033036 0.948821
 H -0.711797 -0.049771 1.877789
 H 1.113119 -2.053360 -0.481918
 H 0.845083 -1.627058 1.197886
 H 2.000281 0.005008 -1.061172
 H 2.521601 -0.040923 0.600103
 H 1.255020 2.096239 -0.441779
 H 0.969877 1.660430 1.233956