18
charge = 0
 C -1.782209 0.697288 0.346355
 C -1.781977 -0.710474 -0.327949
 C -0.281824 -0.752012 0.031296
 C 1.050173 -1.094680 -0.587565
 N 1.894603 -0.024618 0.018403
 C 1.060150 1.095706 0.542840
 C -0.288185 0.755442 -0.044939
 H -1.928938 0.610967 1.425694
 H -2.449050 1.462791 -0.051967
 H -1.953135 -0.625776 -1.403909
 H -2.431591 -1.483129 0.084599
 H -0.230991 -1.018959 1.095557
 H 1.009860 -1.031156 -1.682847
 H 1.443252 -2.077705 -0.314016
 H 2.577701 0.313918 -0.641683
 H 1.474547 2.057430 0.229452
 H 1.046800 1.075455 1.638694
 H -0.263698 1.018903 -1.111617