16
charge = 0
 C -0.320361 -0.914856 1.190963
 C 0.781116 -1.325720 0.188463
 C 0.875733 -0.062115 -0.704000
 N 0.678203 0.969426 0.325271
 C -0.668448 0.513907 0.701437
 C -1.367075 0.334116 -0.635519
 C -0.417792 -0.019928 -1.499500
 H 0.069165 -0.874792 2.208982
 H -1.187632 -1.575840 1.177880
 H 0.532797 -2.217624 -0.387790
 H 1.731735 -1.494785 0.695851
 H 1.805831 0.040602 -1.261251
 H 0.602812 1.876314 -0.129258
 H -1.160417 1.147101 1.438453
 H -2.437792 0.349831 -0.795558
 H -0.542194 -0.357147 -2.520824