17
charge = 0
 C -1.518701 0.761913 0.120841
 C -1.382759 -0.743351 -0.100047
 C 0.007232 -1.256820 0.213205
 N 1.071404 -1.131682 -0.785550
 C 1.120789 -0.299185 0.407259
 C 0.839851 1.183121 0.319558
 N -0.392131 1.541847 -0.353267
 H -1.612337 0.961648 1.194745
 H -2.433052 1.136536 -0.347112
 H -1.634307 -0.995033 -1.137936
 H -2.112413 -1.270619 0.521952
 H 0.046214 -2.201867 0.747076
 H 0.727292 -0.587112 -1.572702
 H 1.923353 -0.564662 1.091452
 H 1.672401 1.692634 -0.176390
 H 0.796261 1.580211 1.341717
 H -0.299188 1.478511 -1.359301