17
charge = 0
 C -1.721615 0.644619 0.354112
 N -1.740573 -0.737444 -0.254436
 C -0.260491 -0.730240 0.014583
 C 1.044268 -1.106325 -0.644712
 C 1.928622 -0.005230 0.044262
 N 1.025190 1.089145 0.547536
 C -0.234683 0.753021 -0.066513
 H -1.865320 0.562744 1.433499
 H -2.436704 1.351065 -0.069973
 H -1.894849 -0.626650 -1.254744
 H -0.181850 -1.011010 1.072516
 H 1.011106 -0.964573 -1.728063
 H 1.421909 -2.107908 -0.433779
 H 2.672552 0.381817 -0.657884
 H 2.470492 -0.436234 0.889967
 H 1.381417 1.992314 0.265894
 H -0.267070 1.031499 -1.135263