13
charge = 0
 C 1.761814 0.134979 -1.168838
 C 2.352710 -0.000306 0.288659
 C 2.894318 -1.352622 -0.150961
 C 2.380805 -1.221831 -1.398625
 N 2.697056 -2.320716 -2.102396
 N 3.410207 -3.173489 -1.340042
 C 3.541491 -2.601534 -0.145795
 H 2.178241 0.956461 -1.755791
 H 0.671592 0.177849 -1.217200
 H 1.594718 -0.021399 1.074298
 H 3.099978 0.756356 0.536207
 H 2.492950 -2.581350 -3.050337
 H 4.087821 -3.126798 0.623422