18
charge = 0
 C -1.497702 0.771119 -0.054600
 C -1.483278 -0.780765 0.055702
 C -0.183162 -1.438619 0.611883
 C 0.830454 -0.678577 -0.187136
 N 2.096790 0.012626 0.070185
 C 0.825592 0.735951 0.193340
 C -0.215625 1.450238 -0.624349
 H -1.659728 1.186252 0.946419
 H -2.372140 1.062586 -0.644162
 H -1.649645 -1.197018 -0.944574
 H -2.347000 -1.086977 0.653183
 H -0.211843 -2.519358 0.439834
 H -0.066546 -1.267345 1.684621
 H 0.645067 -0.818172 -1.253170
 H 2.565324 0.150889 -0.819846
 H 0.646660 0.902775 1.254298
 H -0.102574 1.264394 -1.696188
 H -0.269944 2.533091 -0.472538