16
charge = 0
 C -0.081341 1.442381 0.573995
 C -1.405258 0.734106 0.277682
 C -1.528126 -0.493517 -0.253778
 C -0.368626 -1.442220 -0.566622
 C 0.733638 -0.811546 0.240678
 N 2.059412 -0.206140 0.089563
 C 0.863762 0.581526 -0.205510
 H 0.128885 1.450007 1.648519
 H -0.130060 2.485238 0.242228
 H -2.316539 1.290924 0.479964
 H -2.532050 -0.866741 -0.439648
 H -0.164417 -1.467293 -1.643116
 H -0.622854 -2.462975 -0.261760
 H 0.525838 -0.912181 1.303284
 H 2.520231 -0.423057 -0.788630
 H 0.676414 0.688968 -1.273548