15
charge = 0
 C -1.375772 0.669579 0.164009
 C -1.492201 -0.808265 -0.166199
 C -0.277030 -1.588492 0.186404
 C 0.951663 -1.101952 0.401874
 C 1.472204 0.246982 0.245574
 N 0.945915 1.322612 -0.218404
 N -0.346965 1.367338 -0.582261
 H -1.195166 0.781291 1.242213
 H -2.319735 1.169151 -0.065538
 H -1.729579 -0.925171 -1.228846
 H -2.349991 -1.222790 0.378889
 H -0.419107 -2.656763 0.326511
 H 1.713553 -1.817169 0.700430
 H 2.526115 0.362862 0.484725
 H -0.592006 2.322729 -0.787060