17
charge = 0
 C 0.286119 -1.268037 -1.043144
 N 0.824498 0.072936 -0.832575
 C 0.397851 -0.711200 0.320367
 C 1.481351 -1.158316 1.255926
 C 1.680539 -0.246377 2.483623
 C 0.876099 -1.293502 3.270476
 N 1.093701 -2.248252 2.171338
 H 1.012926 -2.000003 -1.380901
 H -0.703536 -1.372994 -1.476331
 H 0.132767 0.775581 -1.066474
 H -0.536331 -0.423729 0.802406
 H 2.378953 -1.371695 0.666066
 H 1.267720 0.759901 2.414968
 H 2.722000 -0.187662 2.797783
 H -0.170365 -0.998131 3.418563
 H 1.282498 -1.615725 4.232841
 H 0.288209 -2.790574 1.883447