18
charge = 0
 C -1.708492 0.793228 0.495405
 C -1.128521 -0.317962 -0.287459
 C -0.325282 -1.412664 0.366908
 C 1.100721 -1.402944 -0.192681
 C 1.702918 0.018334 -0.205340
 C 0.760013 1.044403 0.408745
 N -0.513714 1.009811 -0.297457
 H -1.597021 0.747587 1.577283
 H -2.600833 1.305721 0.151032
 H -1.599348 -0.583226 -1.231681
 H -0.796204 -2.383793 0.196342
 H -0.301066 -1.269013 1.450474
 H 1.082687 -1.803506 -1.209960
 H 1.725982 -2.083373 0.391107
 H 1.913475 0.325956 -1.232926
 H 2.655837 0.043174 0.329159
 H 1.179640 2.049506 0.315580
 H 0.640419 0.848751 1.484788