17
charge = 0
 C 0.990818 -0.022051 0.088869
 C 0.338451 0.980957 1.007425
 C 0.728767 1.082191 2.422664
 N 1.057986 2.155404 1.481519
 N 2.414651 -0.140318 0.329129
 C 3.153023 -0.899619 -0.655425
 C 3.285177 0.570340 -0.591907
 H 0.782168 0.250251 -0.960256
 H 0.533093 -1.002697 0.260461
 H -0.698535 1.184689 0.751229
 H 1.536869 0.440324 2.756898
 H -0.011709 1.338787 3.172549
 H 2.037217 2.066617 1.229348
 H 2.596828 -1.310501 -1.494706
 H 3.939684 -1.538767 -0.269630
 H 2.814597 1.148041 -1.383840
 H 4.171413 1.020644 -0.157535