13
charge = 0
 C 1.591233 -0.663877 0.730126
 C 2.269890 0.344808 -0.249883
 C 2.895748 0.938924 0.994790
 C 3.643625 1.755527 1.800243
 N 3.474635 1.339573 3.097303
 C 2.656501 0.309462 3.090547
 N 2.289324 0.046294 1.814659
 H 1.899972 -1.704509 0.624170
 H 0.504711 -0.597464 0.797371
 H 1.575345 0.991555 -0.787348
 H 2.962645 -0.109130 -0.959513
 H 4.277791 2.592845 1.557386
 H 2.325081 -0.243598 3.955459