18
charge = 0
 C 0.253006 -1.611699 -1.105855
 C 0.882465 -0.253140 -1.025432
 C 0.232653 -0.851072 0.182457
 N 1.068056 -1.300315 1.234609
 C 1.411118 -0.371698 2.319163
 C 1.347137 -1.551337 3.300586
 C 0.534978 -2.262076 2.207837
 H 0.918180 -2.464330 -1.153293
 H -0.675959 -1.719528 -1.651395
 H 0.387489 0.575764 -1.515460
 H 1.963925 -0.207329 -1.019655
 H -0.730600 -0.422465 0.479971
 H 0.615308 0.364405 2.512765
 H 2.359766 0.157070 2.196159
 H 0.860336 -1.382185 4.259288
 H 2.321860 -2.012399 3.458533
 H -0.548944 -2.147597 2.364812
 H 0.752305 -3.311259 1.991889