18
charge = 0
 C -1.671250 0.875239 0.506850
 C -1.115064 -0.260637 -0.297765
 C -0.311820 -1.369230 0.340327
 C 1.103326 -1.370456 -0.241192
 C 1.751101 0.030255 -0.175726
 N 0.827940 0.987586 0.416674
 C -0.412109 1.064692 -0.285701
 H -1.561882 0.831655 1.583822
 H -2.574230 1.355765 0.150062
 H -1.648316 -0.520496 -1.205943
 H -0.785950 -2.339573 0.170677
 H -0.266476 -1.221624 1.421125
 H 1.053870 -1.701353 -1.282470
 H 1.723787 -2.101170 0.284218
 H 2.076726 0.330745 -1.184892
 H 2.647747 0.005238 0.449168
 H 1.255995 1.892018 0.549322
 H -0.463495 1.678245 -1.187067