17
charge = 0
 C -1.411299 0.753437 0.744792
 C -1.150216 -0.276909 -0.331525
 N -0.312900 -1.393641 0.016779
 C 1.076691 -1.240929 -0.366188
 C 1.608119 0.034496 0.266039
 N 0.931076 1.229827 -0.222261
 C -0.491214 1.074172 -0.388391
 H -0.974712 0.521329 1.708403
 H -2.366906 1.263230 0.782041
 H -1.946069 -0.483371 -1.042489
 H -0.706920 -2.262082 -0.308538
 H 1.231714 -1.186136 -1.459487
 H 1.635682 -2.104773 0.004720
 H 2.676756 0.148259 0.070078
 H 1.481593 -0.035230 1.351355
 H 1.317990 1.463809 -1.128223
 H -0.884876 1.771502 -1.119104