19
charge = 0
 C -1.474667 0.723097 0.120773
 C -1.480765 -0.777596 -0.112633
 N -0.289318 -1.441403 0.385984
 C 0.884541 -1.182227 -0.425754
 C 1.712604 0.010755 0.031204
 N 0.932046 1.194414 0.343315
 C -0.260649 1.460239 -0.435363
 H -1.517754 0.924249 1.194859
 H -2.381631 1.136802 -0.335219
 H -1.616051 -0.962976 -1.195567
 H -2.348388 -1.209821 0.394433
 H -0.458799 -2.436172 0.426688
 H 0.604739 -1.047922 -1.484814
 H 1.542690 -2.055106 -0.392886
 H 2.458332 0.190025 -0.762776
 H 2.266761 -0.269936 0.933816
 H 1.532579 2.004302 0.367000
 H -0.145253 1.242155 -1.511759
 H -0.457717 2.533620 -0.364682