15
charge = 0
 C 2.108168 -0.178707 -0.039025
 C 0.787518 -0.857958 0.164844
 C -0.407919 -1.409604 -0.548432
 C -1.493693 -0.431328 -0.068487
 N -1.347476 0.702745 0.511481
 N -0.082256 1.231784 0.736269
 C 0.833501 0.607984 -0.147371
 H 2.659149 -0.244321 -0.970718
 H 2.730633 -0.138501 0.846865
 H 0.640810 -0.975202 1.236262
 H -0.680335 -2.426384 -0.244954
 H -0.330990 -1.408700 -1.640214
 H -2.532002 -0.745060 -0.155416
 H -0.158872 2.238887 0.719805
 H 0.596867 0.797964 -1.197300