16
charge = 0
 C -2.649909 0.285376 0.594865
 N -2.372301 0.176615 -0.837743
 C -1.264534 0.166553 0.113599
 C -0.453951 -1.121460 0.188093
 C 0.943119 -0.654327 -0.084361
 C 1.037165 0.671041 -0.099642
 C -0.282102 1.333068 0.161810
 H -3.149639 -0.574664 1.030168
 H -2.969794 1.244280 0.993262
 H -2.449928 1.088407 -1.276964
 H -0.820619 -1.848288 -0.542294
 H -0.525732 -1.592686 1.176548
 H 1.774337 -1.334440 -0.229980
 H 1.953353 1.228083 -0.256659
 H -0.526958 2.102138 -0.580412
 H -0.286006 1.831634 1.139509