17
charge = 0
 C -1.197881 -0.723648 -0.517159
 N -1.190844 0.759998 -0.496214
 C -0.018870 1.094133 0.326043
 C 1.213491 0.728386 -0.509379
 N 1.206425 -0.755374 -0.499554
 C 0.032856 -1.095646 0.317897
 C 0.005953 -0.004761 1.391628
 H -1.095196 -1.103293 -1.535937
 H -2.116079 -1.130617 -0.082797
 H -2.026769 1.099513 -0.037964
 H -0.043533 2.131007 0.660239
 H 2.130841 1.132086 -0.070197
 H 1.112786 1.115648 -1.525484
 H 2.041459 -1.098317 -0.042234
 H 0.056876 -2.134994 0.644369
 H 0.899937 -0.009171 2.020489
 H -0.889253 -0.005051 2.018764