18
charge = 0
 C -0.819163 0.000968 -1.186983
 C -0.641908 1.049646 -0.068020
 C -1.226356 0.000551 0.896527
 C -0.643419 -1.048727 -0.068735
 C 0.845597 -1.224299 0.239315
 N 1.613553 -0.001200 0.032473
 C 0.847360 1.222863 0.240149
 H -0.110717 0.000741 -2.020439
 H -1.837133 0.001835 -1.580185
 H -1.147054 2.014155 -0.155864
 H -2.318485 0.001337 0.894901
 H -0.862586 -0.000063 1.928898
 H -1.149954 -2.012447 -0.157236
 H 1.280374 -2.005767 -0.390564
 H 0.951995 -1.561964 1.278849
 H 1.981980 -0.001145 -0.906300
 H 1.283262 2.004133 -0.389198
 H 0.954244 1.559665 1.279913