17
charge = 0
 C -1.182680 0.000079 0.990410
 C -0.649489 -1.017709 -0.026095
 C 0.847712 -1.232180 0.212496
 N 1.610340 -0.001687 0.025949
 C 0.850617 1.230004 0.216404
 C -0.647084 1.019826 -0.022862
 N -0.884878 0.003003 -1.073837
 H -0.746943 -0.002024 1.991049
 H -2.270780 0.001278 1.044299
 H -1.185027 -1.962327 -0.153430
 H 1.241257 -1.986686 -0.475208
 H 0.991431 -1.626798 1.227665
 H 2.040479 -0.000750 -0.884314
 H 1.245945 1.985758 -0.468905
 H 0.995265 1.621059 1.232819
 H -1.180390 1.966105 -0.147196
 H -0.185976 0.003351 -1.813224