16
charge = 0
 C -0.415568 1.470903 -0.564598
 N -1.309506 0.660076 0.234051
 C -1.429586 -0.734741 -0.132652
 C -0.253859 -1.582031 0.227391
 C 1.021016 -1.202564 0.347106
 C 1.619334 0.099321 0.092621
 C 1.037701 1.227648 -0.322229
 H -0.625560 2.516893 -0.318594
 H -0.604376 1.377414 -1.652368
 H -2.228043 1.080213 0.223217
 H -1.642830 -0.880572 -1.210116
 H -2.302505 -1.131211 0.396066
 H -0.482339 -2.630660 0.398745
 H 1.730800 -1.975757 0.628508
 H 2.698382 0.129702 0.217373
 H 1.682640 2.079277 -0.522112