15
charge = 0
 C 1.165787 1.214893 -0.158079
 N -0.214765 1.521121 0.125219
 C -1.332774 0.740587 -0.001142
 N -1.536242 -0.506391 -0.046177
 C -0.558161 -1.542890 0.054132
 C 0.915030 -1.310643 0.070954
 C 1.620931 -0.191101 -0.009096
 H 1.781211 1.838612 0.501344
 H 1.417184 1.533342 -1.183334
 H -0.420844 2.504463 0.070646
 H -2.227941 1.369019 -0.026722
 H -0.755877 -2.256354 -0.759623
 H -0.803784 -2.121277 0.958063
 H 1.482066 -2.237210 0.150616
 H 2.704379 -0.279579 -0.004911