18
charge = 0
 C 1.385837 -0.158470 -0.512995
 C 2.785299 0.087002 -0.037389
 C 3.578334 -0.988254 0.642023
 C 4.009154 -0.462706 -0.704637
 C 5.037959 0.655398 -0.730841
 C 4.204810 1.911712 -0.471300
 N 3.122444 1.436215 0.389198
 H 1.260302 -1.194060 -0.835533
 H 1.134245 0.492177 -1.356680
 H 0.661902 0.025534 0.287596
 H 3.164959 -1.990494 0.675513
 H 4.159732 -0.694232 1.508245
 H 3.922796 -1.121156 -1.560943
 H 5.557945 0.708964 -1.688856
 H 5.793403 0.518886 0.048360
 H 3.835902 2.309354 -1.430528
 H 4.774892 2.703657 0.021812
 H 2.313794 2.041072 0.359053