15
charge = 0
 C 1.419392 0.203146 0.552931
 C 2.731464 -0.062996 -0.117527
 C 3.450829 0.999490 -0.890660
 C 4.084477 0.426470 0.358468
 C 4.946514 -0.741921 0.090774
 N 4.328570 -1.719027 -0.459072
 N 2.988790 -1.432907 -0.478153
 H 1.358399 1.241356 0.884594
 H 1.287481 -0.450683 1.417478
 H 0.587518 0.028979 -0.136197
 H 3.052082 2.002469 -0.804752
 H 3.903343 0.756355 -1.845059
 H 4.222764 1.055065 1.229305
 H 6.003807 -0.819265 0.308783
 H 2.516769 -1.824652 -1.278813