18
charge = 0
 C 1.476245 0.503439 -0.167709
 C 2.838026 -0.073654 0.060756
 C 2.996580 -1.563818 0.271189
 C 4.503064 -1.816156 0.132810
 C 5.007987 -0.732170 -0.831029
 C 4.064715 0.418866 -0.597990
 N 3.832246 0.688875 0.829706
 H 0.966237 -0.008262 -0.988623
 H 1.533625 1.566385 -0.417314
 H 0.851842 0.400808 0.725313
 H 2.435483 -2.086393 -0.511831
 H 2.603984 -1.895640 1.236551
 H 4.730164 -2.825575 -0.214937
 H 4.980855 -1.685019 1.103749
 H 4.921237 -1.057273 -1.873500
 H 6.054136 -0.470979 -0.651101
 H 4.031169 1.250684 -1.294518
 H 3.502096 1.642879 0.937577