16
charge = 0
 C 1.379260 0.472638 0.456058
 C 2.699435 -0.018211 -0.052927
 C 2.878870 -1.503145 -0.339060
 C 4.343257 -1.749034 -0.107280
 C 4.957969 -0.657780 0.347335
 C 4.023606 0.494032 0.401435
 N 3.451466 0.908656 -0.888534
 H 1.095262 -0.045567 1.375913
 H 0.591593 0.303791 -0.284448
 H 1.424383 1.543702 0.656501
 H 2.560977 -1.766532 -1.354999
 H 2.265044 -2.106157 0.340943
 H 4.822403 -2.699336 -0.311078
 H 6.007446 -0.588274 0.607284
 H 4.142914 1.285165 1.133686
 H 3.932325 0.416841 -1.637010