16
charge = 0
 C 0.989178 0.165821 -0.459138
 C 2.245007 0.035379 0.345800
 C 2.710606 -1.278546 1.041990
 C 4.048324 -0.504612 0.945726
 N 3.583457 0.071950 -0.370983
 C 3.760349 0.683725 1.855840
 C 2.548230 1.047652 1.453253
 H 0.908739 -0.630949 -1.202673
 H 0.970522 1.124338 -0.983560
 H 0.109644 0.112285 0.187372
 H 2.668039 -2.143533 0.371848
 H 2.310807 -1.521792 2.029405
 H 5.025412 -0.982900 0.984090
 H 3.572848 -0.698902 -1.043836
 H 4.410217 1.100343 2.611102
 H 1.906311 1.854031 1.778545