18
charge = 0
 C 1.066874 0.030176 -0.114931
 C 2.561382 0.141740 -0.047918
 C 3.512860 -0.490851 -1.097775
 C 4.547537 -0.252302 0.022676
 C 3.423257 -0.605007 1.006129
 N 4.609804 1.208853 0.169725
 C 3.167481 1.542966 0.067526
 H 0.747338 -1.013512 -0.170372
 H 0.671701 0.548381 -0.994145
 H 0.600527 0.475769 0.769113
 H 3.657073 0.032911 -2.047765
 H 3.291978 -1.546146 -1.269058
 H 5.523698 -0.734602 0.046838
 H 3.489455 -0.187586 2.013026
 H 3.203179 -1.672968 1.033808
 H 5.117188 1.612053 -0.608918
 H 2.937421 2.162535 -0.805676
 H 2.818448 2.069379 0.962016