17
charge = 0
 C 1.461733 0.348473 -0.295828
 C 2.859093 -0.017011 0.097212
 C 3.173402 -1.420312 0.611355
 N 4.387507 -1.874842 -0.075207
 C 5.102878 -0.671907 -0.522370
 C 4.076292 0.442229 -0.598143
 N 3.731873 0.982630 0.724605
 H 1.058262 -0.359841 -1.024537
 H 1.426899 1.346304 -0.741569
 H 0.796504 0.346381 0.573073
 H 2.352415 -2.116376 0.423915
 H 3.344371 -1.380051 1.691532
 H 4.107999 -2.396705 -0.895705
 H 5.587467 -0.855938 -1.483682
 H 5.878419 -0.405881 0.202532
 H 4.029789 1.098189 -1.461418
 H 3.318807 1.905667 0.618736