15
charge = 0
 C 1.200131 0.074173 0.609941
 C 2.546473 -0.197465 0.014495
 C 3.358970 0.885861 -0.568063
 N 3.737606 0.298816 0.734497
 C 4.672189 -0.750264 0.535137
 N 4.300902 -1.802223 -0.061788
 C 2.898234 -1.613490 -0.422250
 H 1.145598 1.090395 1.003093
 H 0.993831 -0.621113 1.427709
 H 0.415517 -0.044437 -0.142291
 H 3.003484 1.909053 -0.511047
 H 4.001745 0.659576 -1.413827
 H 5.678054 -0.615715 0.922605
 H 2.284417 -2.348370 0.110783
 H 2.759858 -1.796789 -1.491674