18
charge = 0
 C 1.148069 0.026502 0.118026
 C 2.653855 0.031183 0.007731
 C 3.274452 -0.959993 -1.004159
 C 4.778936 -0.741565 -0.794049
 C 4.773578 0.810955 -0.801397
 C 3.267624 1.016987 -1.013523
 N 2.904639 0.022278 -2.055926
 H 0.801222 -0.853694 0.666803
 H 0.688126 0.020291 -0.870581
 H 0.795136 0.909392 0.658535
 H 3.124333 0.037485 0.995365
 H 2.911053 -1.982897 -1.114878
 H 5.370507 -1.170458 -1.606555
 H 5.142279 -1.165370 0.145175
 H 5.362222 1.236221 -1.617921
 H 5.133913 1.246119 0.133783
 H 2.897182 2.036265 -1.133918
 H 3.540177 0.020708 -2.851630