15
charge = 0
 C 1.144451 -0.045992 -0.313672
 C 2.431496 0.248920 0.394612
 C 3.524542 1.078477 -0.161663
 C 3.600959 1.319955 -1.647545
 C 3.698077 -0.095938 -2.137520
 N 3.709044 -0.985303 -1.233607
 N 3.722493 -0.382087 0.048799
 H 0.420662 0.740285 -0.084226
 H 0.728678 -0.995646 0.030765
 H 1.248844 -0.102390 -1.396324
 H 2.322640 0.298682 1.474931
 H 4.088771 1.724371 0.500624
 H 4.482148 1.910465 -1.917394
 H 2.731811 1.829634 -2.078819
 H 3.721962 -0.388252 -3.183360