18
charge = 0
 C 1.108904 0.036721 0.128404
 C 2.613171 0.041017 -0.013225
 C 3.249317 1.089049 -0.971521
 C 2.917260 0.114145 -2.125632
 C 3.257423 -0.924045 -1.033850
 N 4.684319 -0.704635 -0.754707
 C 4.728592 0.784730 -0.752209
 H 0.778973 0.894989 0.720287
 H 0.774298 -0.865404 0.647973
 H 0.585412 0.078572 -0.828369
 H 3.081235 -0.010172 0.974990
 H 2.943283 2.135401 -0.977591
 H 3.555597 0.135509 -3.013342
 H 1.869493 0.132474 -2.419636
 H 2.983114 -1.977082 -1.099753
 H 5.243387 -1.065702 -1.518356
 H 5.362989 1.185913 -1.548379
 H 5.097611 1.163540 0.205315