15
charge = 0
 C 0.988077 -0.144252 -0.333341
 C 2.328256 0.081776 0.298155
 C 3.405032 0.874515 -0.325558
 C 3.357868 1.138233 -1.819686
 N 3.390390 -0.182377 -2.448610
 C 3.476553 -1.032083 -1.514542
 N 3.569297 -0.587136 -0.173795
 H 0.313952 0.666844 -0.045567
 H 0.548067 -1.080710 0.018356
 H 1.032714 -0.176679 -1.422192
 H 2.301194 0.098650 1.384401
 H 4.042643 1.488881 0.300439
 H 4.222965 1.721176 -2.148425
 H 2.465178 1.679290 -2.151360
 H 3.512144 -2.101928 -1.698396