16
charge = 0
 C 1.014397 -0.049519 -0.199877
 C 2.457516 0.286254 0.056523
 C 3.638258 -0.525403 -0.567721
 N 4.456975 0.689446 -0.280050
 C 3.222609 1.392307 -0.739640
 C 3.060192 0.900105 -2.181895
 C 3.341212 -0.396380 -2.065664
 H 0.735631 -0.967146 0.325438
 H 0.809162 -0.189320 -1.262891
 H 0.364059 0.747149 0.171720
 H 2.648303 0.423279 1.123716
 H 3.975091 -1.482068 -0.169199
 H 5.212339 0.792566 -0.956002
 H 3.121695 2.455333 -0.522201
 H 2.752036 1.473595 -3.044527
 H 3.327934 -1.183279 -2.806338