20
charge = 0
 C 0.753994 0.167944 -0.665121
 C 2.183254 -0.036823 -0.252087
 C 3.004084 -1.123641 -0.880131
 C 3.309263 0.314867 -1.177472
 C 4.567867 0.950532 -0.656465
 C 4.457766 2.459267 -0.521303
 N 5.714731 3.027565 -0.057232
 H 0.081442 -0.506760 -0.127661
 H 0.628592 -0.024150 -1.734203
 H 0.424677 1.192966 -0.471917
 H 2.383042 0.144072 0.801183
 H 2.538873 -1.720681 -1.656155
 H 3.704527 -1.667477 -0.256578
 H 3.003438 0.660697 -2.162459
 H 5.414853 0.718605 -1.310955
 H 4.807697 0.516525 0.323140
 H 3.596083 2.696058 0.123252
 H 4.237989 2.889529 -1.504332
 H 5.928313 2.691731 0.874611
 H 5.652107 4.035963 0.003196