16
charge = 0
 C 0.753349 0.413631 -0.311559
 C 2.231213 0.365675 -0.049724
 C 3.077530 -0.717317 -0.650844
 C 3.204523 0.695102 -1.136734
 C 4.462709 1.469458 -0.826014
 C 4.241648 2.909953 -0.806505
 N 4.052933 4.043957 -0.797752
 H 0.209166 -0.237876 0.377083
 H 0.527324 0.082902 -1.328738
 H 0.363724 1.428105 -0.196140
 H 2.528017 0.687230 0.944976
 H 2.594591 -1.434894 -1.303552
 H 3.889578 -1.126913 -0.061043
 H 2.775428 0.914155 -2.109198
 H 5.245658 1.254513 -1.560571
 H 4.857100 1.172838 0.150924