17
charge = 0
 C 0.885696 -0.020204 -0.219425
 C 2.377670 -0.048857 -0.048214
 C 3.241038 -0.821581 -0.991256
 C 3.250801 0.690582 -1.007119
 C 4.482960 1.415193 -0.576523
 N 5.229409 1.881456 -1.630618
 N 4.868899 1.646052 0.614972
 H 0.418402 -0.889416 0.250605
 H 0.614380 -0.030026 -1.278372
 H 0.452111 0.878083 0.227522
 H 2.715779 -0.053353 0.984156
 H 2.767621 -1.332552 -1.821875
 H 4.117942 -1.314200 -0.589082
 H 2.744236 1.150308 -1.850800
 H 5.171593 1.377595 -2.498710
 H 6.146084 2.217422 -1.381733
 H 4.172370 1.333498 1.283570