19
charge = 0
 C 1.010063 0.340740 -0.237568
 C 2.508822 0.285991 -0.150883
 C 3.298381 -0.650735 -1.025499
 C 3.406513 0.840090 -1.213795
 N 2.833167 1.506161 -2.353851
 C 4.683003 1.504230 -0.762641
 N 4.411457 2.871704 -0.355646
 H 0.560779 -0.399491 0.429659
 H 0.646926 0.116415 -1.244012
 H 0.628506 1.323930 0.052266
 H 2.892659 0.425176 0.855150
 H 2.743164 -1.202028 -1.777175
 H 4.139431 -1.187843 -0.601533
 H 1.824660 1.462821 -2.359847
 H 3.172138 1.116724 -3.224067
 H 5.417812 1.423200 -1.582784
 H 5.094997 0.949972 0.086820
 H 3.914833 3.327653 -1.114216
 H 5.273480 3.381019 -0.207779