16
charge = 0
 C 1.013773 -0.002330 -0.068864
 C 2.337092 -0.022455 -0.102699
 C 3.303439 -1.194791 -0.061390
 C 4.599601 -0.365965 -0.110360
 C 4.306747 0.645461 -1.231042
 C 3.300273 1.133448 -0.165654
 N 4.347422 0.758195 0.832076
 H 0.429711 -0.913974 -0.002972
 H 0.465556 0.933003 -0.106937
 H 3.185201 -1.876806 -0.907979
 H 3.224610 -1.779325 0.859708
 H 5.549449 -0.893251 -0.028543
 H 3.917796 0.276428 -2.180167
 H 5.121328 1.355182 -1.366252
 H 2.900769 2.146279 -0.143698
 H 3.952230 0.455602 1.721282