16
charge = 0
 C 1.108421 -0.056410 -0.024317
 C 2.566147 -0.312908 -0.018735
 C 3.305563 -1.343665 -0.431814
 C 4.731751 -0.857296 -0.147794
 C 4.660228 0.587906 -0.709885
 C 3.653666 0.662818 0.469844
 N 4.618313 -0.213710 1.195990
 H 0.553556 -0.907113 -0.423416
 H 0.866825 0.822651 -0.631735
 H 0.737526 0.152073 0.985067
 H 3.007439 -2.275931 -0.891386
 H 5.572156 -1.525911 -0.330132
 H 4.273077 0.720463 -1.719023
 H 5.568520 1.164505 -0.530096
 H 3.350001 1.599749 0.938175
 H 4.143210 -0.822320 1.861117