18
charge = 0
 C 0.961338 0.054547 0.390259
 C 2.423104 -0.035828 -0.028707
 C 2.791744 -1.441218 -0.530096
 C 2.525951 -1.387794 -2.025732
 C 3.581375 -0.775126 -2.907259
 C 2.460117 0.064902 -2.382698
 N 2.746877 0.815528 -1.179833
 H 0.756412 -0.578512 1.258227
 H 0.306840 -0.264360 -0.426462
 H 0.695416 1.081248 0.658320
 H 3.055988 0.251650 0.817576
 H 2.187929 -2.206832 -0.039236
 H 3.841294 -1.665449 -0.321212
 H 1.842885 -2.103258 -2.465418
 H 3.573790 -1.049313 -3.956086
 H 4.560764 -0.596360 -2.477869
 H 1.713628 0.453955 -3.066898
 H 2.248937 1.694020 -1.156675