18
charge = 0
 C 0.903660 0.110510 -0.159709
 C 2.409722 -0.107581 -0.083540
 C 2.857772 -1.552508 -0.386084
 C 3.519794 -1.495576 -1.742165
 C 2.776413 -0.871256 -2.853493
 N 3.784652 -0.109458 -2.127678
 C 3.235567 0.745369 -1.075494
 H 0.385902 -0.488841 0.594064
 H 0.488584 -0.159678 -1.133073
 H 0.653619 1.158863 0.024323
 H 2.714619 0.152594 0.933940
 H 2.019525 -2.254500 -0.358073
 H 3.586332 -1.894240 0.353924
 H 4.302416 -2.214743 -1.963221
 H 1.730118 -0.630891 -2.698421
 H 3.038618 -1.105834 -3.879845
 H 4.084405 1.207435 -0.564345
 H 2.645495 1.552627 -1.519690