16
charge = 0
 C 1.046494 -0.129161 -0.326551
 C 2.474018 0.022854 0.054780
 C 3.193021 1.140112 0.148599
 C 4.599368 0.826788 0.489525
 C 5.317245 -0.003897 -0.506119
 N 4.691622 -0.632904 0.645241
 C 3.346743 -1.159754 0.394260
 H 0.567205 0.838113 -0.483528
 H 0.488964 -0.667761 0.447240
 H 0.944204 -0.712306 -1.247863
 H 2.825056 2.145160 -0.018634
 H 5.149055 1.443963 1.193814
 H 6.401727 -0.049833 -0.507444
 H 4.841436 -0.111400 -1.477960
 H 2.983802 -1.675206 1.292692
 H 3.372421 -1.907457 -0.407653