16
charge = 0
 C 1.007779 -0.073684 0.182036
 C 2.474967 -0.051570 -0.054579
 C 3.265208 1.018507 -0.175796
 C 4.695167 0.636192 -0.287981
 N 5.263536 -0.076857 0.863183
 C 4.719141 -0.849412 -0.242493
 C 3.282522 -1.323221 -0.162244
 H 0.588280 0.933390 0.192220
 H 0.768361 -0.550942 1.138428
 H 0.493782 -0.653165 -0.592269
 H 2.924617 2.047478 -0.150536
 H 5.396861 1.235425 -0.856654
 H 4.601723 -0.043405 1.634045
 H 5.446031 -1.441044 -0.786984
 H 3.109096 -1.996388 0.686473
 H 3.003520 -1.885013 -1.061829