16
charge = 0
 C 0.970839 0.060437 0.042754
 C 2.488740 0.060608 0.002761
 C 3.244025 1.135778 0.839355
 C 4.258421 0.060705 1.263552
 C 3.244262 -1.014527 0.839213
 C 2.960451 0.060832 -1.375664
 N 3.332506 0.060676 -2.464818
 H 0.631965 0.060329 1.080843
 H 0.565038 -0.823619 -0.453780
 H 0.564849 0.944475 -0.453658
 H 2.612798 1.454870 1.671401
 H 3.609106 2.014574 0.308608
 H 4.585712 0.060668 2.302939
 H 5.138015 0.060840 0.617985
 H 2.613146 -1.333879 1.671246
 H 3.609537 -1.893169 0.308344