16
charge = 0
 C 0.808208 0.012603 0.202428
 C 2.310633 0.013192 0.068294
 C 3.120236 1.133225 0.751885
 C 4.196338 0.083836 1.138897
 C 3.131930 -1.014048 0.873017
 C 5.312630 0.037890 0.215512
 N 6.191445 0.000815 -0.526606
 H 0.363548 0.864522 -0.318960
 H 0.509744 0.070322 1.253530
 H 0.373099 -0.897354 -0.219473
 H 2.596224 -0.044786 -0.986418
 H 3.443968 1.982341 0.150769
 H 2.617531 1.498016 1.650509
 H 4.590883 0.143271 2.154719
 H 2.632750 -1.280894 1.807332
 H 3.465125 -1.921832 0.370965