16
charge = 0
 C 0.968141 -0.041592 0.087718
 C 2.473120 -0.000037 0.156034
 C 3.179679 1.061217 1.022998
 C 4.227993 0.004875 1.411139
 C 3.209435 -1.082110 0.994305
 C 3.686271 -2.271541 0.323943
 N 4.073101 -3.201515 -0.233155
 H 0.577250 0.835364 -0.435027
 H 0.530004 -0.055245 1.089885
 H 0.619635 -0.929502 -0.446237
 H 2.903394 0.006803 -0.849636
 H 2.559456 1.344106 1.877804
 H 3.529582 1.967185 0.528175
 H 4.584016 -0.023829 2.440356
 H 5.084484 0.013041 0.736094
 H 2.591159 -1.378030 1.847104