14
charge = 0
 C 1.110328 -0.040154 -0.052133
 C 2.432366 0.126676 -0.052676
 C 3.164205 1.380045 0.142893
 C 4.476816 1.195028 -0.049014
 C 4.773998 -0.237772 -0.318289
 N 4.445185 -1.173613 0.758817
 C 3.457945 -0.930215 -0.293579
 H 0.438771 0.791068 0.130313
 H 0.662928 -1.010122 -0.235453
 H 2.688092 2.309060 0.431208
 H 5.241057 1.958765 0.021887
 H 5.596808 -0.532153 -0.959077
 H 4.199379 -0.654227 1.597151
 H 3.219313 -1.788074 -0.910829