16
charge = 0
 C 0.916884 0.038179 -0.094907
 C 2.400417 0.027099 -0.076434
 C 3.247089 1.061535 0.033812
 C 4.629133 0.576341 -0.009149
 C 4.630214 -0.754169 -0.148587
 C 3.214224 -1.251237 -0.164479
 N 2.940951 -2.175197 -1.253594
 H 0.526170 1.056219 -0.059610
 H 0.498383 -0.512560 0.754699
 H 0.526459 -0.439452 -1.001362
 H 2.965876 2.103117 0.137637
 H 5.502768 1.211179 0.068687
 H 5.484763 -1.412402 -0.220981
 H 3.051565 -1.800246 0.778006
 H 3.067957 -1.701976 -2.140928
 H 1.980337 -2.494939 -1.218219