18
charge = 0
 C 1.031643 0.014517 -0.008230
 C 2.540115 -0.022005 0.049085
 C 3.198861 1.230133 0.648511
 C 4.504023 0.713395 1.194395
 C 5.537189 1.430009 1.613557
 C 4.418135 -0.801146 1.165721
 N 3.032831 -1.138955 0.855731
 H 0.683959 0.837996 -0.635721
 H 0.610648 0.159111 0.992511
 H 0.634764 -0.917696 -0.414862
 H 2.932349 -0.165747 -0.966759
 H 2.573033 1.609151 1.466942
 H 3.330399 2.045628 -0.066397
 H 5.529516 2.514217 1.586266
 H 6.433891 0.956857 2.000491
 H 4.739841 -1.266627 2.099403
 H 5.068541 -1.189381 0.372052
 H 2.498563 -1.166057 1.718613