20
charge = 0
 C 1.179721 0.018469 -0.122474
 C 2.681264 0.093253 0.053110
 C 3.143624 1.269470 0.915603
 C 4.433340 0.778505 1.598312
 C 4.587314 -0.658727 1.105375
 N 3.239959 -1.056271 0.749648
 C 3.188639 -2.294051 0.018293
 H 0.804656 0.943806 -0.566348
 H 0.695760 -0.121401 0.847613
 H 0.881783 -0.802652 -0.778175
 H 3.151183 0.181762 -0.948771
 H 2.376496 1.500683 1.658882
 H 3.295107 2.167870 0.314501
 H 4.329014 0.804501 2.684027
 H 5.302984 1.384806 1.340342
 H 5.005633 -1.335149 1.855516
 H 5.255266 -0.691552 0.222553
 H 3.642159 -3.092104 0.610711
 H 3.727296 -2.238465 -0.946716
 H 2.154991 -2.579740 -0.184393