18
charge = 0
 C 1.053530 -0.314920 -0.512952
 C 2.495036 0.035976 -0.132571
 C 3.391258 -1.160474 -0.263953
 C 4.214598 -1.023423 -1.293486
 C 3.999081 0.298728 -1.956186
 N 3.166751 1.000996 -1.000827
 C 2.413963 2.111096 -1.504426
 H 0.664368 -1.082120 0.161377
 H 0.999907 -0.704428 -1.532737
 H 0.396389 0.554889 -0.438127
 H 2.487534 0.421961 0.897679
 H 3.310098 -2.026415 0.381190
 H 4.933404 -1.754041 -1.641734
 H 3.516753 0.161788 -2.944913
 H 4.933222 0.845973 -2.141150
 H 3.093294 2.831214 -1.969508
 H 1.908283 2.625999 -0.683142
 H 1.652040 1.840719 -2.256732