18
charge = 0
 C 1.000682 -0.042626 0.001007
 C 2.327129 -0.092599 -0.040099
 C 3.111406 -1.371301 -0.053054
 C 4.103794 -1.386058 -1.216924
 C 4.926547 -0.102636 -1.237853
 N 4.124752 1.109363 -1.240986
 C 3.184850 1.139889 -0.126496
 H 0.397723 -0.944064 0.045655
 H 0.470963 0.904878 -0.000659
 H 2.442488 -2.234731 -0.091012
 H 3.677456 -1.443597 0.886348
 H 3.552769 -1.475832 -2.160537
 H 4.760942 -2.259072 -1.146123
 H 5.589024 -0.084455 -2.107684
 H 5.572510 -0.069609 -0.350979
 H 3.603879 1.163009 -2.109719
 H 2.567342 2.037842 -0.203152
 H 3.776433 1.234501 0.794677