18
charge = 0
 C 0.952712 -0.108497 -0.167080
 C 2.440076 -0.038828 -0.055333
 C 3.112715 1.108826 0.003062
 C 4.607630 1.181923 0.053297
 C 5.229803 -0.162296 -0.306989
 N 4.572047 -1.287890 0.332585
 C 3.166979 -1.357452 -0.022796
 H 0.506099 0.885802 -0.219739
 H 0.515836 -0.636999 0.687537
 H 0.652387 -0.663923 -1.062713
 H 2.561854 2.046903 0.002735
 H 4.936894 1.497041 1.053374
 H 4.965992 1.958509 -0.632629
 H 6.292936 -0.181284 -0.052803
 H 5.159879 -0.313911 -1.390255
 H 4.654203 -1.192046 1.338054
 H 2.665281 -2.032194 0.680191
 H 3.071278 -1.840403 -1.006988