18
charge = 0
 C 1.031965 0.095939 0.127306
 C 2.510887 -0.007799 0.025770
 C 3.274207 -1.097247 -0.064070
 C 2.869683 -2.526939 -0.088987
 C 4.719298 -0.710360 -0.167893
 N 4.722396 0.717783 0.123645
 C 3.362625 1.225949 -0.008215
 H 0.546990 -0.880672 0.123919
 H 0.621493 0.678010 -0.705192
 H 0.738496 0.615491 1.045746
 H 1.788627 -2.652794 -0.022210
 H 3.325571 -3.076898 0.741255
 H 3.208659 -3.014523 -1.009694
 H 5.106815 -0.957356 -1.172412
 H 5.341885 -1.265310 0.548019
 H 5.382319 1.226912 -0.443309
 H 3.187505 1.781976 -0.946513
 H 3.113088 1.915736 0.810344