20
charge = 0
 C 1.093995 -0.048860 0.834039
 C 2.293114 0.087635 -0.081702
 C 3.325446 1.138817 0.388886
 C 4.193858 -0.000079 0.960844
 C 5.684247 0.071252 0.734721
 N 6.334063 -1.157689 1.164699
 C 3.371343 -1.000681 0.125059
 H 0.450695 0.834056 0.778876
 H 1.403101 -0.168961 1.877098
 H 0.491069 -0.920981 0.565810
 H 1.952177 0.209594 -1.113183
 H 2.969971 1.904453 1.082633
 H 3.821048 1.634781 -0.450524
 H 3.996967 -0.135043 2.030583
 H 6.075270 0.979350 1.224549
 H 5.869160 0.191496 -0.339083
 H 6.237023 -1.274769 2.166415
 H 7.326238 -1.129651 0.967024
 H 3.053792 -1.925298 0.610803
 H 3.891014 -1.259625 -0.800638