13
charge = 0
 C 1.075582 0.014291 -0.142764
 C 2.562486 0.098701 -0.017759
 C 3.242836 1.314661 -0.001816
 C 4.612033 1.280088 0.117271
 C 5.203788 0.028735 0.212083
 N 4.512452 -1.102517 0.192215
 N 3.203510 -1.066306 0.078254
 H 0.621643 1.002908 -0.216986
 H 0.653948 -0.503599 0.721216
 H 0.804480 -0.565795 -1.027318
 H 2.700195 2.249897 -0.081321
 H 5.210102 2.183591 0.137079
 H 6.278074 -0.087565 0.308646