15
charge = 0
 C 1.022329 0.043872 -0.005314
 C 2.489829 -0.113371 -0.138101
 C 3.241304 -1.219320 -0.147848
 C 4.679821 -0.827604 -0.308958
 C 4.625681 0.692457 -0.390143
 N 5.535428 1.567682 -0.527749
 N 3.293406 1.015845 -0.279819
 H 0.543440 -0.929118 0.096099
 H 0.600071 0.547323 -0.880633
 H 0.769357 0.646728 0.872477
 H 2.872184 -2.228901 -0.054849
 H 5.141529 -1.233916 -1.215270
 H 5.310200 -1.134553 0.532516
 H 6.448153 1.127506 -0.590869
 H 2.970479 1.966560 -0.302740