17
charge = 0
 C 1.000258 0.165493 0.484869
 C 2.305640 0.027225 -0.264498
 C 2.420429 -1.176116 -1.196901
 C 3.307682 -0.604463 -2.271490
 C 3.986604 -1.398265 -3.323584
 N 3.350507 0.670157 -2.234525
 N 2.526169 1.122596 -1.218004
 H 0.858365 -0.668675 1.176414
 H 0.161833 0.187798 -0.214631
 H 0.977306 1.088234 1.070118
 H 3.140094 -0.013827 0.455250
 H 1.442716 -1.443654 -1.623058
 H 2.826298 -2.067478 -0.715701
 H 4.667634 -2.134524 -2.885437
 H 4.551297 -0.741746 -3.985043
 H 3.258610 -1.957078 -3.922032
 H 2.911577 1.966624 -0.817647