17
charge = 0
 C 0.936258 -0.032446 -0.173633
 C 2.417127 -0.092044 0.178561
 C 3.169983 1.157305 -0.266953
 C 3.433733 1.103274 -1.766734
 C 4.097134 -0.196415 -2.082613
 N 3.933530 -1.263341 -1.400449
 N 3.042190 -1.281937 -0.394885
 H 0.454473 0.811046 0.329265
 H 0.431042 -0.950379 0.133601
 H 0.791732 0.078299 -1.250632
 H 2.502852 -0.178744 1.267837
 H 4.128441 1.209388 0.257359
 H 2.597282 2.046178 0.006733
 H 4.070558 1.934177 -2.081213
 H 2.495524 1.209792 -2.326121
 H 4.804226 -0.269941 -2.902880
 H 3.208915 -2.053912 0.225258