18
charge = 0
 C 1.068767 -0.042744 0.286160
 C 2.520708 0.153850 -0.133503
 C 3.240854 1.240865 0.695295
 C 3.819758 0.088600 1.526901
 N 3.441014 -0.851946 0.459790
 C 2.619158 0.212114 -1.625457
 C 2.835810 1.298689 -2.350603
 H 0.987067 -0.120139 1.374261
 H 0.661972 -0.958076 -0.154630
 H 0.449658 0.792858 -0.048896
 H 2.606750 1.961526 1.210938
 H 4.002531 1.766819 0.120792
 H 3.283669 -0.057304 2.472620
 H 4.891705 0.116734 1.737263
 H 2.990117 -1.703740 0.773140
 H 2.477989 -0.746757 -2.122734
 H 2.986100 2.271059 -1.892027
 H 2.873072 1.258705 -3.432900