18
charge = 0
 C 1.000731 -0.043931 0.692178
 C 2.284812 0.179355 -0.078600
 C 3.285527 1.133670 0.599705
 C 4.055869 -0.126987 1.026196
 N 3.283061 -0.904908 0.032946
 C 5.535882 -0.194748 0.865119
 C 6.352794 0.846658 0.810785
 H 0.355707 0.837668 0.637141
 H 1.201767 -0.249561 1.747985
 H 0.442197 -0.889554 0.280110
 H 2.048842 0.418456 -1.120962
 H 2.892426 1.770366 1.392152
 H 3.845385 1.738666 -0.113516
 H 3.808146 -0.404729 2.062564
 H 2.914070 -1.787608 0.367103
 H 5.944711 -1.202161 0.806535
 H 5.981771 1.865425 0.862845
 H 7.424822 0.721012 0.714436