17
charge = 0
 C 0.767232 0.288310 0.250114
 C 2.236017 -0.023717 0.105018
 C 3.254348 0.948406 0.740748
 C 3.893232 -0.266617 1.438876
 N 2.762842 -1.068792 0.993180
 C 2.749365 -2.414236 0.794132
 N 3.539639 -3.292138 1.266305
 H 0.502608 1.157686 -0.357886
 H 0.521463 0.502714 1.292692
 H 0.149288 -0.550094 -0.080743
 H 2.475693 -0.230997 -0.946719
 H 2.787762 1.648291 1.434504
 H 3.892307 1.495860 0.049675
 H 4.013500 -0.205986 2.523685
 H 4.844162 -0.588754 0.995481
 H 1.921846 -2.742508 0.159033
 H 4.265105 -2.864529 1.843207