17
charge = 0
 C 0.978308 0.468962 -0.013681
 C 2.419935 0.194928 -0.378045
 C 3.471405 1.023082 0.397124
 C 3.796177 -0.243989 1.208159
 N 3.004965 -0.999019 0.241341
 N 2.310751 -2.107068 0.460435
 C 2.656420 -2.887875 1.407840
 H 0.665453 1.431389 -0.427123
 H 0.842735 0.500076 1.070893
 H 0.324756 -0.307702 -0.413841
 H 2.540566 0.200865 -1.466512
 H 3.070854 1.860318 0.967032
 H 4.300628 1.366492 -0.219721
 H 3.355487 -0.261337 2.215464
 H 4.846792 -0.538259 1.280452
 H 2.090246 -3.802235 1.535505
 H 3.499031 -2.693028 2.073896