18
charge = 0
 C 0.953519 0.245113 0.218490
 C 2.441381 0.033242 -0.027108
 C 2.810924 -1.424289 -0.359423
 C 2.954802 -1.461140 -1.882172
 N 3.403465 -0.119622 -2.291532
 C 2.303081 0.811131 -2.501130
 C 3.019652 0.798316 -1.212142
 H 0.639696 -0.261200 1.135010
 H 0.344956 -0.151063 -0.598142
 H 0.716304 1.306564 0.324053
 H 2.974725 0.351132 0.873221
 H 2.076729 -2.142249 0.014836
 H 3.771906 -1.671669 0.098865
 H 2.007923 -1.717404 -2.370561
 H 3.694087 -2.197110 -2.204970
 H 1.296683 0.403343 -2.534626
 H 2.492691 1.600890 -3.221530
 H 3.729364 1.592826 -1.001048