16
charge = 0
 C 1.124254 0.176951 0.656909
 C 2.244071 0.044747 -0.042358
 C 2.808328 -1.223942 -0.628617
 C 4.320632 -0.954452 -0.643437
 N 4.525581 0.500229 -0.655902
 C 3.773841 1.175844 -1.693538
 C 3.232433 1.110609 -0.311839
 H 0.478854 -0.670355 0.857896
 H 0.814865 1.139000 1.049956
 H 2.417015 -1.381712 -1.638509
 H 2.543572 -2.105367 -0.043834
 H 4.835565 -1.409581 -1.492501
 H 4.783475 -1.334098 0.270765
 H 3.283605 0.585014 -2.462221
 H 4.211901 2.104700 -2.042191
 H 3.247788 1.992802 0.318432