15
charge = 0
 C 0.960773 -0.071376 -0.047311
 C 2.479958 -0.108836 0.058991
 C 3.135825 -1.336522 -0.509118
 C 4.027782 -0.962790 -1.424148
 N 4.076522 0.425502 -1.542562
 C 3.136977 1.022758 -0.723248
 N 2.827699 2.247243 -0.601138
 H 0.510752 -0.851231 0.570957
 H 0.643181 -0.228002 -1.080448
 H 0.591596 0.900896 0.282030
 H 2.758259 0.020497 1.112786
 H 2.921980 -2.350597 -0.208998
 H 4.685075 -1.573249 -2.027194
 H 4.576787 0.915545 -2.261867
 H 3.378134 2.845353 -1.214242