18
charge = 0
 C 1.025375 0.005212 -0.068255
 C 2.511495 -0.006574 -0.124697
 C 3.307790 -1.072709 -0.167100
 C 4.765857 -0.717244 -0.131678
 N 5.343916 -1.157364 1.133689
 C 4.741231 0.805773 -0.408584
 C 3.310076 1.269378 -0.107509
 H 0.613801 -1.005035 -0.060379
 H 0.604423 0.541511 -0.925271
 H 0.672723 0.526794 0.828100
 H 2.969811 -2.102908 -0.148365
 H 5.324816 -1.236719 -0.918185
 H 4.862140 -0.716258 1.908794
 H 6.321090 -0.895998 1.192194
 H 4.967258 0.986519 -1.462806
 H 5.498144 1.331455 0.178129
 H 2.943982 1.990797 -0.845314
 H 3.214673 1.763991 0.867738