16
charge = 0
 C 0.837320 0.109342 0.112745
 C 2.320428 0.025812 0.034897
 C 3.089221 -1.069193 -0.057884
 C 4.545267 -0.682218 -0.071090
 N 5.402787 -1.196346 -1.130499
 C 4.479939 0.817378 -0.038641
 C 3.203902 1.205840 0.047514
 H 0.378400 -0.878373 0.053478
 H 0.435894 0.723410 -0.699903
 H 0.518206 0.578039 1.049052
 H 2.744187 -2.095655 -0.091088
 H 4.986828 -1.005194 0.886268
 H 5.005802 -0.950794 -2.030571
 H 5.434713 -2.208165 -1.091223
 H 5.361724 1.442819 -0.066942
 H 2.848191 2.226989 0.119579