20
charge = 0
 C 0.609522 -0.067496 -0.381610
 C 2.087045 -0.055194 -0.081357
 C 2.469867 -0.064749 1.380465
 C 2.043545 1.172152 2.152871
 N 2.559616 1.116335 3.513966
 C 2.982065 -0.803906 -1.023116
 C 2.982420 0.698075 -1.021251
 H 0.125351 -0.938551 0.071588
 H 0.431912 -0.111793 -1.458796
 H 0.109588 0.827915 -0.002649
 H 3.556072 -0.161690 1.474540
 H 2.037771 -0.954706 1.859107
 H 0.949120 1.279708 2.105286
 H 2.466868 2.057139 1.666526
 H 2.158769 0.326830 4.006974
 H 2.295188 1.945836 4.030423
 H 2.524648 -1.310281 -1.865243
 H 3.846060 -1.311808 -0.610838
 H 2.528038 1.207805 -1.862805
 H 3.848025 1.202899 -0.607960