13
charge = 0
 C 1.072551 0.029624 -0.023207
 C 2.561708 0.102380 -0.091388
 C 3.249846 1.309803 -0.119018
 C 4.630156 1.253141 -0.182655
 N 5.297109 0.104972 -0.217118
 C 4.546059 -0.989124 -0.186220
 N 3.224374 -1.055247 -0.125684
 H 0.617482 1.019795 0.001272
 H 0.768648 -0.525383 0.867244
 H 0.688071 -0.519042 -0.886017
 H 2.726952 2.258004 -0.091838
 H 5.225420 2.162538 -0.207003
 H 5.074734 -1.938762 -0.213666