15
charge = 0
 C 1.129255 0.001678 -0.016271
 N 2.563962 0.083392 -0.010384
 C 3.328492 1.190910 -0.009494
 C 4.637131 0.767089 -0.003074
 C 4.557808 -0.637327 -0.000439
 C 5.670328 -1.627037 0.006348
 N 3.290716 -1.035225 -0.004952
 H 0.717942 1.010158 -0.020110
 H 0.777880 -0.527968 0.870818
 H 0.785371 -0.531669 -0.904078
 H 2.893895 2.178357 -0.013416
 H 5.522858 1.381598 -0.000631
 H 6.636463 -1.121181 0.009456
 H 5.626520 -2.273538 -0.873169
 H 5.618970 -2.269946 0.888085