15
charge = 0
 C 0.910756 -0.112373 0.257478
 C 2.204990 -0.086979 -0.059979
 C 2.975170 1.141188 -0.437837
 C 4.387283 1.088540 0.135154
 N 5.085182 -0.146420 -0.169704
 C 4.357340 -1.180314 -0.258330
 N 2.989413 -1.230737 -0.127241
 H 0.335821 0.802946 0.270455
 H 0.396348 -1.036051 0.497244
 H 2.441603 2.035062 -0.112031
 H 3.044943 1.178167 -1.531814
 H 4.353177 1.205089 1.226652
 H 4.977296 1.925257 -0.246699
 H 4.819775 -2.148115 -0.448653
 H 2.541705 -2.130351 -0.093694