17
charge = 0
 C 0.840460 0.026671 0.111022
 C 2.360960 0.052123 0.023293
 C 2.982506 0.131970 1.411592
 C 2.921750 -1.148929 -0.803723
 N 3.602966 -0.610476 -1.979212
 C 3.490487 0.655440 -1.895388
 N 2.819844 1.150022 -0.821814
 H 0.504759 -0.846599 0.676971
 H 0.400983 -0.021071 -0.887351
 H 0.456011 0.918559 0.615205
 H 2.698348 -0.739090 2.008329
 H 2.647790 1.025960 1.946584
 H 4.071739 0.160093 1.341457
 H 2.116852 -1.822219 -1.116986
 H 3.622611 -1.744394 -0.209066
 H 3.901076 1.340148 -2.632616
 H 2.657457 2.121702 -0.635697