19
charge = 0
 C 0.997927 -0.007097 0.368304
 C 2.436624 0.177318 -0.091887
 C 3.144204 1.347045 0.623835
 C 4.438011 0.761111 1.198678
 N 5.541591 0.936804 0.265609
 C 4.024572 -0.693770 1.422117
 N 3.299195 -0.975601 0.195319
 H 0.401180 0.883786 0.152799
 H 0.953337 -0.188671 1.446567
 H 0.525585 -0.852045 -0.141458
 H 2.428538 0.343442 -1.175368
 H 2.511845 1.719469 1.434206
 H 3.360935 2.183929 -0.040477
 H 4.711041 1.250470 2.136807
 H 5.363071 0.370695 -0.558190
 H 6.399217 0.583985 0.674454
 H 3.411362 -0.774115 2.336629
 H 4.883752 -1.361551 1.533017
 H 2.786323 -1.846114 0.220840