19
charge = 0
 C 0.954599 0.051952 0.062724
 C 2.446878 -0.099622 0.024647
 C 3.200141 -0.943101 -0.938692
 C 2.581362 -1.741469 -2.046647
 N 3.483087 -1.750294 -3.190136
 N 3.181532 0.503694 -1.069715
 C 4.400614 1.199092 -0.725496
 H 0.497449 -0.738790 0.663827
 H 0.525261 0.018522 -0.938205
 H 0.681585 1.011853 0.509566
 H 2.925368 -0.017381 1.002014
 H 4.131443 -1.367819 -0.562636
 H 1.584892 -1.339986 -2.273685
 H 2.445256 -2.773396 -1.705751
 H 3.585809 -0.802023 -3.533576
 H 3.094132 -2.297719 -3.947646
 H 5.067557 1.221456 -1.590601
 H 4.941358 0.728901 0.111124
 H 4.167976 2.230139 -0.447705