17
charge = 0
 C 1.139261 0.045596 0.279371
 C 2.569164 -0.010961 -0.209123
 C 2.931750 -1.241525 -1.039543
 C 3.943093 -0.636245 -1.964550
 N 3.900049 0.637202 -1.987429
 N 2.909415 1.074491 -1.137477
 C 3.185556 2.363389 -0.560289
 H 0.930532 -0.794220 0.946325
 H 0.446814 0.000422 -0.564059
 H 0.940919 0.963881 0.836408
 H 3.255265 0.046299 0.656554
 H 2.064507 -1.603377 -1.609572
 H 3.308283 -2.074789 -0.444983
 H 4.608528 -1.171375 -2.630052
 H 3.471189 3.051087 -1.355229
 H 3.998563 2.326238 0.182782
 H 2.287213 2.747967 -0.074513