13
charge = 0
 C 0.946649 0.044086 0.095509
 C 2.439119 0.074471 0.062173
 C 3.174744 1.238451 -0.005345
 C 4.559194 1.130961 -0.030236
 N 5.209141 -0.022340 0.007113
 N 4.516857 -1.143979 0.071819
 C 3.195457 -1.099646 0.098167
 H 0.528134 1.050422 0.059730
 H 0.586566 -0.443472 1.005148
 H 0.548929 -0.521563 -0.751057
 H 2.695245 2.211052 -0.038312
 H 5.189437 2.013194 -0.082968
 H 2.707318 -2.069547 0.151751