15
charge = 0
 C 0.924010 -0.011544 -0.166335
 C 2.413672 -0.003208 -0.106643
 C 3.229622 1.098699 -0.179643
 N 4.525380 0.681472 -0.086176
 N 5.602277 1.554889 -0.128665
 C 4.563332 -0.676291 0.046160
 C 3.269093 -1.128976 0.037060
 H 0.530510 0.999849 -0.283888
 H 0.486721 -0.432882 0.743528
 H 0.558013 -0.608599 -1.006648
 H 3.007493 2.147893 -0.289777
 H 6.137425 1.476366 0.728067
 H 6.201429 1.317728 -0.910550
 H 5.502963 -1.198905 0.134792
 H 2.963362 -2.161090 0.124407