15
charge = 0
 C 1.090493 0.061884 0.022296
 C 2.571715 -0.008880 -0.020312
 C 3.358939 -1.086075 -0.038580
 C 4.776285 -0.683668 -0.081300
 N 5.852138 -1.369761 -0.109545
 N 4.752080 0.685511 -0.086390
 C 3.426804 1.225625 -0.050264
 H 0.645870 -0.933393 0.039214
 H 0.697314 0.598361 -0.847196
 H 0.748170 0.605482 0.908712
 H 3.039022 -2.119531 -0.024980
 H 5.633743 -2.360633 -0.099051
 H 5.595183 1.227655 -0.113023
 H 3.193091 1.842859 -0.930263
 H 3.244274 1.850274 0.836583