13
charge = 0
 C 0.950664 0.025135 -0.095960
 C 2.427387 -0.093711 -0.096798
 C 3.217284 -1.173843 -0.096726
 C 4.613707 -0.683753 -0.097828
 N 5.706722 -1.322159 -0.098167
 N 4.602853 0.742440 -0.098560
 C 3.365091 1.061781 -0.097963
 H 0.467095 -0.951741 -0.095136
 H 0.604360 0.580052 -0.973717
 H 0.605432 0.581003 0.781616
 H 2.928466 -2.215687 -0.096014
 H 5.521398 -2.325747 -0.097541
 H 3.047733 2.102230 -0.098306