17
charge = 0
 C 0.980046 0.085245 0.071456
 C 2.510656 0.034689 0.042639
 C 3.027312 0.202031 -1.377263
 C 3.038773 -1.228001 0.740081
 N 3.133796 -0.790847 2.130745
 N 3.389013 0.564857 2.146442
 C 3.056069 1.052691 1.018607
 H 0.558052 -0.681635 -0.584735
 H 0.616635 1.057540 -0.270833
 H 0.606592 -0.082477 1.083872
 H 2.667798 -0.606524 -2.020209
 H 4.119241 0.200628 -1.406447
 H 2.678019 1.143808 -1.808868
 H 4.025262 -1.496536 0.333969
 H 2.368784 -2.084161 0.637992
 H 3.798257 -1.281446 2.710347
 H 3.098695 2.122638 0.849014