15
charge = 0
 C 0.830386 0.002381 -0.256522
 C 2.305753 0.042287 0.137952
 C 3.039076 1.279076 -0.371270
 C 3.289928 1.095628 -1.833120
 N 3.505882 -0.034800 -2.374115
 N 3.658727 -1.144859 -1.534110
 C 3.055860 -1.136287 -0.413770
 H 0.297372 0.858446 0.165082
 H 0.353543 -0.907495 0.113931
 H 0.711056 0.023350 -1.341788
 H 2.374599 0.002625 1.228561
 H 3.995183 1.399540 0.154824
 H 2.462241 2.190612 -0.198838
 H 3.235082 1.945530 -2.511077
 H 3.141222 -2.046862 0.178060