18
charge = 0
 C 0.861302 0.271367 -0.214587
 C 2.310490 -0.026801 0.061754
 C 3.072771 -0.819155 -0.925250
 N 3.318991 0.616190 -0.776319
 C 2.658545 -0.112500 1.515715
 C 4.061326 0.094221 1.984647
 C 3.019114 1.132525 2.269236
 H 0.656515 0.284895 -1.288361
 H 0.582374 1.242902 0.203554
 H 0.213831 -0.483111 0.240575
 H 2.554013 -1.167418 -1.813478
 H 3.885217 -1.454987 -0.588975
 H 2.870847 1.128681 -1.528217
 H 2.071186 -0.847128 2.059214
 H 4.794945 0.340346 1.227053
 H 4.419317 -0.515896 2.804551
 H 3.080923 2.051109 1.697661
 H 2.659303 1.247380 3.284137