16
charge = 0
 C 0.987120 0.546567 -0.360122
 C 2.460127 0.428684 -0.115855
 C 3.283759 -0.655774 -0.698701
 N 3.347698 0.693174 -1.231228
 C 4.564145 1.421230 -0.918780
 C 4.349439 2.861544 -0.917065
 C 4.179332 4.049003 -0.900065
 H 0.422577 -0.020550 0.384709
 H 0.735155 0.164764 -1.350965
 H 0.668382 1.590420 -0.308004
 H 2.802527 0.795249 0.852004
 H 2.829402 -1.394970 -1.350584
 H 4.131493 -1.014194 -0.118821
 H 5.317230 1.170071 -1.673415
 H 4.983356 1.127519 0.059535
 H 4.026349 5.102172 -0.893544