19
charge = 0
 C 0.958696 1.063981 -0.728840
 C 2.055493 0.117796 -0.345549
 C 2.601803 -0.891130 -1.281390
 N 3.356248 0.302507 -0.957514
 C 4.509463 0.114723 -0.104791
 C 4.911361 1.419412 0.554654
 N 6.081565 1.215507 1.393308
 H -0.022819 0.623808 -0.533153
 H 1.022923 1.307980 -1.790657
 H 1.030375 1.996974 -0.163182
 H 2.069718 -0.177563 0.704629
 H 2.223482 -0.950547 -2.297220
 H 2.944618 -1.834452 -0.861922
 H 5.343015 -0.248806 -0.712489
 H 4.320993 -0.648897 0.673347
 H 4.040655 1.831141 1.089753
 H 5.165788 2.137110 -0.229609
 H 5.847804 0.649767 2.200307
 H 6.428709 2.098289 1.744407