17
charge = 0
 C 1.569982 0.613775 0.368156
 C 2.928662 0.028155 0.116757
 C 3.119340 -0.928945 -1.007865
 N 3.702501 0.382335 -1.057517
 C 3.330459 1.345216 -1.998271
 C 3.442833 2.752952 -1.503983
 N 3.023185 1.112283 -3.208373
 H 0.977761 -0.068978 0.982594
 H 1.032518 0.782605 -0.567979
 H 1.635348 1.564487 0.902608
 H 3.538112 -0.117240 1.005958
 H 2.248943 -1.117656 -1.633829
 H 3.811716 -1.759685 -0.918721
 H 2.768098 2.930004 -0.663066
 H 3.201081 3.440504 -2.311178
 H 4.458781 2.943147 -1.149957
 H 3.008979 0.108861 -3.391633