16
charge = 0
 C 0.804147 -0.020028 0.219740
 C 2.315819 -0.019394 0.069316
 C 3.099717 1.030460 0.907706
 N 4.035352 -0.019118 1.326628
 C 3.100574 -1.069211 0.907081
 C 2.700091 -0.018814 -1.330865
 C 2.996901 -0.019272 -2.494853
 H 0.526467 -0.020439 1.276074
 H 0.368753 -0.902974 -0.253526
 H 0.368080 0.862858 -0.253020
 H 2.468476 1.432504 1.711074
 H 3.555153 1.856397 0.357156
 H 4.284869 -0.019305 2.306183
 H 2.469747 -1.472365 1.710227
 H 3.556697 -1.894380 0.355939
 H 3.270567 -0.019528 -3.523168