18
charge = 0
 C 0.995485 -0.125915 0.183316
 C 2.470459 -0.031840 -0.071214
 C 3.111773 -0.640593 -1.298154
 N 2.393378 -1.321170 -2.333898
 C 3.015592 0.842415 -1.183923
 C 4.180988 1.722561 -0.966288
 C 5.457601 1.386907 -1.100403
 H 0.749434 -1.030784 0.747081
 H 0.428497 -0.158065 -0.750144
 H 0.633971 0.730179 0.759117
 H 3.093422 -0.059135 0.818431
 H 4.097525 -1.062939 -1.131699
 H 1.663460 -0.746621 -2.730479
 H 1.969838 -2.176179 -1.995444
 H 2.231588 1.292556 -1.791718
 H 3.939460 2.736987 -0.652269
 H 5.758631 0.396244 -1.423929
 H 6.248597 2.098401 -0.895072