16
charge = 0
 C 0.904312 0.083146 0.035801
 C 2.409533 0.115847 0.057566
 C 3.148581 1.142466 0.931250
 N 4.137111 0.104349 1.261361
 C 3.171015 -0.946190 0.892018
 C 3.699835 -2.124978 0.233292
 C 4.114177 -3.106841 -0.320636
 H 0.500027 0.959707 -0.477635
 H 0.492539 0.070011 1.048816
 H 0.538938 -0.803866 -0.488389
 H 2.818757 0.125712 -0.954698
 H 2.528034 1.460734 1.781115
 H 3.562306 2.027486 0.441981
 H 4.457727 0.076622 2.220921
 H 2.538611 -1.265596 1.735282
 H 4.491498 -3.971919 -0.812443