15
charge = 0
 C 0.929249 -0.091829 0.114287
 C 2.445125 -0.091390 0.041418
 C 3.213056 0.957054 0.892845
 N 4.152171 -0.091706 1.300162
 C 3.213303 -1.140487 0.892479
 C 2.888939 -0.091213 -1.344475
 N 3.213025 -0.091923 -2.448291
 H 0.606911 -0.091814 1.157141
 H 0.515943 -0.975194 -0.376902
 H 0.515220 0.791162 -0.376985
 H 2.564862 1.334784 1.694280
 H 3.661771 1.798433 0.361073
 H 4.426469 -0.091857 2.273012
 H 2.564913 -1.518434 1.693669
 H 3.662043 -1.981578 0.360299