18
charge = 0
 C 0.881533 0.088343 -0.001322
 C 2.394720 0.060717 0.069996
 C 3.021758 1.165439 0.916869
 N 4.360322 0.654129 1.155395
 C 4.201684 -0.755445 1.490365
 C 3.001521 -1.183187 0.680041
 C 2.551708 -2.424186 0.565088
 H 0.528036 1.036063 -0.415864
 H 0.441644 -0.036470 0.991459
 H 0.498272 -0.710671 -0.639306
 H 2.806329 0.161530 -0.942855
 H 2.428600 1.293353 1.840520
 H 3.055588 2.128384 0.401204
 H 4.853901 1.167857 1.871888
 H 3.989094 -0.924691 2.559384
 H 5.101184 -1.324919 1.239922
 H 3.058990 -3.257332 1.039887
 H 1.661417 -2.657513 -0.007683