19
charge = 0
 C 0.779459 -0.231935 0.232970
 C 2.281732 -0.128292 0.088588
 C 2.680766 0.117210 -1.356278
 N 2.909105 0.819580 1.039839
 C 4.008521 -0.119227 1.309186
 C 3.130793 -1.252970 0.774765
 N 3.779349 -2.315993 0.065570
 H 0.285395 0.678952 -0.118781
 H 0.509449 -0.377233 1.280534
 H 0.387145 -1.070140 -0.351717
 H 2.224573 1.042754 -1.720057
 H 3.764646 0.214402 -1.468489
 H 2.344636 -0.693601 -2.009197
 H 3.184569 1.708422 0.639672
 H 4.329662 -0.171350 2.352370
 H 4.896625 0.021892 0.677177
 H 2.543261 -1.689471 1.586442
 H 4.259274 -1.982581 -0.760615
 H 3.127541 -3.035438 -0.218200