19
charge = 0
 C 0.919294 0.199170 0.842579
 C 2.313159 0.113142 0.260820
 C 3.400037 0.834671 1.092738
 N 4.355520 1.529197 0.259106
 C 3.812718 -0.549535 1.668433
 C 3.036755 -1.228903 0.525126
 N 3.927609 -1.562976 -0.574643
 H 0.224999 -0.458443 0.311700
 H 0.533022 1.219569 0.777089
 H 0.907506 -0.092001 1.897368
 H 2.311823 0.412737 -0.791427
 H 3.008631 1.539144 1.832701
 H 4.744340 0.870981 -0.409163
 H 5.125388 1.878371 0.818539
 H 3.371874 -0.750572 2.647281
 H 4.884529 -0.756823 1.710050
 H 2.375190 -2.053869 0.826653
 H 3.394838 -1.843443 -1.390327
 H 4.522970 -2.344299 -0.324382