18
charge = 0
 C 0.990293 -0.127921 0.392935
 C 2.470576 -0.061847 0.041327
 C 2.795086 1.185099 -0.781413
 N 4.120688 1.180258 -1.371512
 C 4.312974 0.047333 -2.259600
 C 3.721766 -1.237053 -1.760199
 C 2.913155 -1.285990 -0.707177
 H 0.676247 0.763649 0.942583
 H 0.767774 -0.999341 1.014013
 H 0.380504 -0.198689 -0.512327
 H 3.035153 -0.009570 0.984912
 H 2.680741 2.085263 -0.170009
 H 2.067206 1.264662 -1.598724
 H 4.813553 1.144200 -0.633322
 H 5.386379 -0.078254 -2.435001
 H 3.882654 0.286660 -3.243112
 H 3.973479 -2.147148 -2.298923
 H 2.523271 -2.243423 -0.368573