17
charge = 0
 C 0.917699 0.099844 -0.321592
 C 2.324247 -0.038611 0.217920
 C 2.597208 -1.363827 0.954852
 N 3.475888 -0.929116 2.028851
 C 3.668395 -1.765435 3.180161
 C 3.275910 0.426926 2.135129
 N 2.653877 1.010361 1.192276
 H 0.702074 -0.676040 -1.061307
 H 0.788968 1.073738 -0.796532
 H 0.187663 0.018282 0.487622
 H 3.033154 0.065097 -0.615208
 H 3.066443 -2.124994 0.327734
 H 1.667580 -1.785963 1.372158
 H 4.206225 -2.675652 2.904910
 H 2.716461 -2.059281 3.647905
 H 4.267754 -1.234706 3.921957
 H 3.684474 0.950178 2.996466