15
charge = 0
 C 0.910826 -0.068876 0.052538
 C 2.237358 -0.061358 0.057328
 C 2.978358 1.253856 0.064181
 N 4.407309 1.080617 0.069410
 C 5.014497 -0.135636 0.068062
 N 4.470606 -1.280824 0.062185
 C 3.030844 -1.351068 0.055995
 H 0.332134 0.849422 0.053406
 H 0.353950 -0.999761 0.047540
 H 2.669897 1.829682 0.945123
 H 2.676960 1.834917 -0.815774
 H 4.986270 1.899315 0.074341
 H 6.103792 -0.076234 0.072739
 H 2.721907 -1.947427 0.922820
 H 2.729094 -1.941233 -0.817584