15
charge = 0
 C 1.024216 -0.081377 0.192642
 C 2.495960 -0.078936 0.012253
 C 3.312055 -1.125697 -0.117965
 N 4.641859 -0.725203 -0.269477
 C 4.755289 0.649944 -0.243782
 N 5.784886 1.385542 -0.348846
 C 3.340613 1.163794 -0.055511
 H 0.629421 -1.099064 0.211731
 H 0.519420 0.459642 -0.615371
 H 0.733180 0.409417 1.127964
 H 3.065385 -2.178678 -0.118052
 H 5.418852 -1.349498 -0.382747
 H 6.633249 0.834993 -0.468728
 H 3.068200 1.821547 -0.887202
 H 3.281616 1.771391 0.853282