17
charge = 0
 C 0.996507 0.039099 -0.484422
 C 2.394468 -0.118619 0.083806
 C 2.644055 -1.406370 0.866327
 N 3.631582 -0.991502 1.858109
 C 3.732458 -1.791222 3.049453
 N 3.456023 0.350873 2.104628
 C 2.787423 0.867606 1.150646
 H 0.782874 -0.732528 -1.228114
 H 0.878239 1.008986 -0.973367
 H 0.244791 -0.034218 0.305384
 H 3.124719 -0.039119 -0.735556
 H 3.014830 -2.233919 0.259997
 H 1.712735 -1.726577 1.367928
 H 4.067178 -2.795597 2.782471
 H 2.772589 -1.872721 3.584520
 H 4.467501 -1.342050 3.716301
 H 2.612728 1.936575 1.121089