13
charge = 0
 C 0.970150 0.074909 -0.105064
 C 2.282914 0.105640 0.121388
 C 3.172762 1.260394 0.018336
 N 4.376482 1.033381 0.378417
 N 4.480755 -0.290074 0.879589
 C 4.412314 -1.243809 -0.219481
 C 3.192507 -0.958166 0.587385
 H 0.436301 0.971022 -0.398030
 H 0.393958 -0.836832 -0.005567
 H 2.889245 2.236495 -0.360576
 H 4.934029 -2.179880 -0.055670
 H 4.472810 -0.832481 -1.221202
 H 2.852195 -1.694487 1.304966