15
charge = 0
 C 1.002658 0.143579 -0.340288
 C 2.489940 -0.042568 -0.057727
 C 3.100274 1.131186 0.660911
 N 3.516398 0.910013 1.838520
 N 3.259655 -0.443100 2.198087
 C 4.149675 -1.326906 1.440391
 C 2.768868 -1.114448 0.968445
 H 0.831558 0.999963 -0.996366
 H 0.449984 0.310754 0.586962
 H 0.589886 -0.741348 -0.830337
 H 3.014631 -0.216396 -1.004678
 H 3.200804 2.124376 0.232029
 H 4.407618 -2.254423 1.939097
 H 4.960441 -0.841915 0.906176
 H 2.027709 -1.890156 1.126769