15
charge = 0
 C 0.977141 -0.010334 -0.099993
 N 2.414162 0.026934 -0.093100
 C 3.214076 1.115108 -0.089633
 C 4.517126 0.668653 -0.083216
 C 5.767034 1.479264 -0.077496
 C 4.378596 -0.731778 -0.083382
 N 3.107987 -1.107508 -0.089353
 H 0.597757 1.010512 -0.102216
 H 0.608279 -0.529697 0.786032
 H 0.616814 -0.530390 -0.989117
 H 2.807621 2.115042 -0.091945
 H 5.542660 2.547358 -0.079042
 H 6.385558 1.271214 -0.954758
 H 6.377011 1.271968 0.805908
 H 5.156558 -1.482155 -0.079379