17
charge = 0
 C 0.987951 -0.017383 0.399286
 C 2.422206 -0.038469 -0.093065
 C 2.744482 1.158574 -0.972900
 N 4.132292 1.091510 -1.373649
 N 4.563690 -0.042043 -1.988410
 C 3.938507 -1.130232 -1.769423
 C 2.739385 -1.302714 -0.886397
 H 0.784945 0.869175 1.005773
 H 0.769606 -0.897348 1.009659
 H 0.287888 -0.016692 -0.442225
 H 3.099044 0.007738 0.767278
 H 2.586717 2.096127 -0.433298
 H 2.069419 1.151944 -1.846313
 H 4.468388 1.895185 -1.879224
 H 4.350035 -2.007278 -2.262552
 H 2.907853 -2.147666 -0.209234
 H 1.876973 -1.589618 -1.503898