18
charge = 0
 C 1.001701 -0.162272 -0.038083
 C 2.493282 -0.069595 0.084511
 N 3.354031 -0.743290 -0.887454
 C 3.286862 0.723850 -0.869462
 C 4.541835 1.442710 -0.517075
 C 5.620207 1.376111 -1.549606
 C 4.669817 2.103614 0.627928
 H 0.639704 -1.135307 0.305672
 H 0.684443 -0.029881 -1.076644
 H 0.509624 0.607162 0.562623
 H 2.877076 -0.146063 1.098402
 H 2.791985 -1.109755 -1.649823
 H 2.723940 1.185364 -1.681823
 H 5.279099 1.805075 -2.498305
 H 5.882137 0.332947 -1.748786
 H 6.516349 1.911580 -1.233827
 H 3.867996 2.132164 1.357129
 H 5.581601 2.637256 0.873633