15
charge = 0
 C 0.953700 -0.058170 -0.329239
 C 2.388152 -0.012792 0.054298
 N 3.066638 1.064868 0.194454
 C 4.419219 0.668023 0.462312
 C 5.126053 -0.104603 -0.614779
 C 4.450230 -0.848371 0.500696
 N 3.070746 -1.180941 0.328976
 H 0.557045 0.954664 -0.348316
 H 0.380671 -0.662182 0.378653
 H 0.828697 -0.499859 -1.322212
 H 4.993091 1.296090 1.131568
 H 6.208498 -0.089374 -0.593422
 H 4.677658 -0.121089 -1.601970
 H 5.018223 -1.439082 1.208437
 H 2.790970 -2.052071 -0.090456