19
charge = 0
 C 1.046780 0.160233 0.393789
 C 2.421385 -0.274567 -0.064223
 N 3.509118 0.698482 0.178356
 C 3.982584 -0.068238 1.340835
 C 3.140762 -1.267890 0.872419
 C 3.929747 -2.344820 0.161823
 N 3.034582 -3.304104 -0.466839
 H 0.693673 1.016267 -0.189172
 H 1.050521 0.447092 1.450239
 H 0.324349 -0.650443 0.264108
 H 2.374988 -0.606300 -1.106928
 H 3.201763 1.642521 0.375768
 H 3.667126 0.324905 2.314562
 H 5.067355 -0.219310 1.365990
 H 2.498691 -1.714760 1.637804
 H 4.638351 -2.797264 0.875067
 H 4.530713 -1.874215 -0.623208
 H 2.555534 -3.855396 0.235245
 H 3.550069 -3.951193 -1.049247