19
charge = 0
 C 0.980918 0.071268 -0.222244
 C 2.472261 0.006911 -0.011083
 N 2.956039 0.210374 1.326120
 C 3.274654 -0.944155 -0.855599
 C 3.362034 0.536913 -1.095778
 C 4.604732 1.304228 -0.753889
 N 4.262294 2.667477 -0.352093
 H 0.470039 -0.696735 0.368259
 H 0.714206 -0.085045 -1.270842
 H 0.590408 1.046382 0.085003
 H 2.451733 -0.368942 1.985716
 H 2.841409 1.181438 1.594175
 H 2.758189 -1.557318 -1.584512
 H 4.123256 -1.413956 -0.373225
 H 2.838196 0.900476 -1.977375
 H 5.301767 1.258961 -1.605756
 H 5.092770 0.820047 0.093913
 H 3.841192 3.165425 -1.128145
 H 5.098203 3.180570 -0.099346