18
charge = 0
 C 1.022114 0.358370 0.501743
 C 2.248588 -0.224034 -0.166854
 N 1.998997 -1.581141 -0.656922
 C 2.920909 -1.815515 -1.765001
 C 3.210551 -0.458130 -2.378837
 C 2.022347 0.411714 -2.647492
 C 2.777850 0.555046 -1.362111
 H 0.684077 -0.284601 1.317547
 H 0.202852 0.467551 -0.215749
 H 1.236624 1.346519 0.913678
 H 3.059558 -0.274604 0.573116
 H 1.044548 -1.640419 -0.988785
 H 2.491210 -2.536771 -2.465734
 H 3.855320 -2.245922 -1.385717
 H 4.109920 -0.322418 -2.967534
 H 1.034539 -0.038759 -2.628959
 H 2.135027 1.199767 -3.381337
 H 3.349569 1.458947 -1.186732