20
charge = 0
 C 0.952402 0.027834 0.036689
 C 2.470758 0.001528 0.148776
 N 3.139902 0.041194 -1.153287
 C 3.030563 1.146283 0.996831
 C 4.440730 0.698754 1.394858
 C 4.418461 -0.844960 1.335784
 C 2.996217 -1.219932 0.907023
 H 0.616493 0.936356 -0.472520
 H 0.473965 -0.002597 1.019791
 H 0.590894 -0.829313 -0.539634
 H 2.871920 0.878825 -1.658057
 H 2.848528 -0.747853 -1.719628
 H 2.398434 1.267714 1.882155
 H 3.018046 2.099412 0.459868
 H 4.714404 1.071600 2.384247
 H 5.175713 1.090179 0.690675
 H 4.680781 -1.300099 2.293302
 H 5.142162 -1.202394 0.602447
 H 2.360079 -1.389576 1.781485
 H 2.956438 -2.128945 0.299513