18
charge = 0
 C 1.024995 -0.077095 -0.067144
 C 2.551905 -0.106868 -0.064896
 N 2.996041 0.107410 -1.436333
 C 3.093611 -1.386661 0.625832
 C 3.391540 -0.996226 2.079437
 C 3.533778 0.496105 1.997607
 C 3.089553 0.973520 0.842184
 H 0.628083 -0.853592 -0.729434
 H 0.661609 0.889483 -0.421193
 H 0.631645 -0.253284 0.936166
 H 2.622753 -0.611484 -2.045758
 H 4.006618 0.054352 -1.491263
 H 4.026939 -1.670351 0.130685
 H 2.405778 -2.231204 0.536273
 H 4.282642 -1.489585 2.478595
 H 2.566791 -1.263690 2.752202
 H 3.913352 1.098115 2.815631
 H 3.047568 2.018036 0.554698