18
charge = 0
 C 0.859814 -0.055946 -0.238035
 C 2.328811 -0.052224 0.155270
 N 2.692319 -1.253258 0.912482
 C 3.614329 -0.895106 1.981308
 C 3.425531 0.586693 2.124265
 C 4.005185 1.346349 3.261357
 C 2.714348 1.044178 1.100239
 H 0.634359 -0.912900 -0.877717
 H 0.598670 0.852730 -0.788090
 H 0.234090 -0.122970 0.654281
 H 2.925886 0.046421 -0.770783
 H 3.046080 -1.989805 0.320899
 H 4.671649 -1.117854 1.752019
 H 3.378569 -1.430048 2.911348
 H 3.614807 0.980866 4.216878
 H 3.782747 2.411551 3.185972
 H 5.093166 1.226364 3.301074
 H 2.441750 2.080247 0.935434