19
charge = 0
 C 0.952656 -0.014971 0.073904
 C 2.463121 -0.037084 -0.049588
 N 2.939718 -0.069473 -1.430133
 C 3.252422 1.043814 0.724991
 C 4.275951 -0.024589 1.157479
 N 5.495723 0.039849 0.383825
 C 3.226261 -1.103797 0.769045
 H 0.535478 0.866422 -0.424281
 H 0.635500 0.008905 1.119938
 H 0.511309 -0.902408 -0.391377
 H 2.595016 0.740941 -1.934590
 H 2.572213 -0.888121 -1.904233
 H 2.682289 1.435389 1.569773
 H 3.648787 1.875591 0.138895
 H 4.539511 -0.008680 2.217625
 H 5.256773 -0.013011 -0.601835
 H 6.088295 -0.755024 0.594388
 H 2.644570 -1.442770 1.630169
 H 3.592288 -1.972475 0.216126