15
charge = 0
 C 0.928020 -0.036860 -0.083789
 C 2.435638 0.093111 0.050474
 N 3.113910 -1.133509 -0.387085
 C 3.928925 -0.780475 -1.294815
 N 3.964089 0.563019 -1.583651
 C 3.029096 1.214787 -0.792278
 C 2.739766 2.514606 -0.796543
 H 0.572092 -0.876737 0.514901
 H 0.653045 -0.212610 -1.125573
 H 0.431781 0.875138 0.254444
 H 2.683904 0.256174 1.105933
 H 4.582076 -1.463142 -1.829010
 H 4.501880 0.990353 -2.315164
 H 3.239112 3.213692 -1.456028
 H 1.989046 2.908064 -0.125426