13
charge = 0
 C 0.958791 -0.070272 -0.162110
 C 2.270695 -0.017068 0.094112
 N 3.121707 -1.080395 0.346585
 C 4.423353 -0.660351 0.571946
 N 5.469847 -1.336785 0.832817
 C 4.370124 0.802373 0.446442
 C 3.114968 1.171826 0.168269
 H 0.414272 -1.005385 -0.196714
 H 0.409733 0.842946 -0.342854
 H 2.831568 -2.040888 0.364459
 H 5.276479 -2.335944 0.872946
 H 5.244750 1.422143 0.571348
 H 2.736424 2.171902 0.014545