15
charge = 0
 C 0.885533 -0.059647 -0.172394
 C 2.362950 0.050096 -0.128619
 C 3.165989 1.168997 -0.115965
 N 2.685153 2.495803 -0.160859
 C 4.516948 0.729622 -0.093579
 C 4.499358 -0.641135 -0.090224
 N 3.196497 -1.037357 -0.096306
 H 0.469774 0.898212 -0.490195
 H 0.445044 -0.308012 0.800120
 H 0.556194 -0.820396 -0.887037
 H 2.276249 2.789901 0.716072
 H 3.419780 3.145979 -0.399222
 H 5.398155 1.353502 -0.081455
 H 5.305515 -1.356630 -0.083430
 H 2.885342 -1.991056 -0.100106