15
charge = 0
 C 1.138822 -0.092360 -0.058751
 C 2.599602 0.109446 0.096021
 N 3.180647 1.207863 -0.214829
 N 4.499870 1.156331 0.189979
 C 4.856615 -0.184071 0.557823
 C 4.598388 -1.303166 -0.403881
 C 3.542266 -0.918838 0.604361
 H 0.677622 0.803794 -0.472450
 H 0.672045 -0.311607 0.907366
 H 0.926128 -0.942131 -0.714975
 H 5.104267 1.641454 -0.457106
 H 5.623559 -0.287883 1.315384
 H 5.133670 -2.225193 -0.217126
 H 4.411603 -1.073377 -1.446447
 H 3.257216 -1.611053 1.386920