15
charge = 0
 C 0.981519 0.154160 -0.245151
 C 2.444666 0.109012 0.024653
 N 3.105764 1.201380 -0.007033
 N 4.456936 1.177216 0.344594
 C 5.119526 0.118140 0.105313
 C 4.487005 -1.152671 -0.363952
 C 3.113194 -1.211683 0.282256
 H 0.662286 1.180346 -0.420416
 H 0.426448 -0.255353 0.605946
 H 0.727503 -0.461869 -1.113175
 H 6.184781 0.157603 0.324263
 H 5.106787 -2.009199 -0.094581
 H 4.397598 -1.148922 -1.458410
 H 3.208169 -1.370291 1.364505
 H 2.506037 -2.029170 -0.109903