15
charge = 0
 C 1.039476 0.136417 0.053662
 C 2.514270 -0.015537 0.061128
 N 3.315236 0.984078 0.069420
 N 4.652192 0.515854 0.074895
 C 4.654523 -0.765089 0.069892
 C 5.901890 -1.566480 0.073572
 C 3.263927 -1.305437 0.060127
 H 0.778625 1.193965 0.056391
 H 0.590195 -0.342834 0.928639
 H 0.599809 -0.335925 -0.829914
 H 6.765522 -0.902745 0.080910
 H 5.957229 -2.212178 -0.807979
 H 5.947600 -2.219089 0.950575
 H 3.042586 -1.927225 0.934590
 H 3.052209 -1.920284 -0.821598