14
charge = 0
 C 1.383172 -0.649078 -0.357075
 C 2.448232 -0.033282 0.137044
 C 3.247415 0.994594 -0.561807
 C 2.724854 1.776892 -1.711547
 C 2.881533 2.459848 -0.375227
 C 3.921472 3.423246 -0.186975
 N 4.766106 4.191178 -0.036455
 H 0.842436 -1.386157 0.224224
 H 1.016736 -0.448986 -1.358274
 H 2.789827 -0.282799 1.139152
 H 4.318536 0.816949 -0.561214
 H 1.707364 1.606527 -2.037873
 H 3.417087 2.056896 -2.494238
 H 1.972930 2.660873 0.180066