20
charge = 0
 C 1.748628 1.769135 -1.003331
 C 1.929640 0.779885 0.133915
 C 3.279480 0.808959 0.820876
 C 3.436903 -0.174198 1.959920
 C 2.521145 0.076797 3.149011
 C 4.094325 2.040810 0.879175
 N 4.424923 0.977994 -0.071330
 H 0.809116 1.579902 -1.526942
 H 2.565557 1.685976 -1.721878
 H 1.715508 2.799703 -0.641900
 H 1.782816 -0.239358 -0.245393
 H 1.149201 0.939574 0.884961
 H 4.479443 -0.140050 2.297988
 H 3.270184 -1.188016 1.575135
 H 2.733894 -0.626958 3.956937
 H 2.655650 1.088004 3.541947
 H 1.468644 -0.040634 2.883612
 H 4.733578 2.178156 1.746887
 H 3.744006 2.961913 0.427280
 H 5.213849 0.437496 0.268021