14
charge = 0
 C 2.653263 -1.390427 0.417352
 C 2.399801 -0.138133 0.032064
 C 2.984648 0.574907 -1.074364
 C 2.746884 1.868303 -1.500568
 C 3.560781 2.112788 -2.626322
 C 4.276510 0.964441 -2.862086
 N 3.920995 0.047824 -1.922257
 H 2.148485 -1.823244 1.271093
 H 3.365030 -2.031120 -0.093542
 H 1.673547 0.442444 0.594002
 H 2.054251 2.554239 -1.037068
 H 3.620565 3.022548 -3.202390
 H 5.005962 0.732581 -3.621681
 H 4.290788 -0.882650 -1.857822