12
charge = 0
 C 1.043766 -0.055151 0.048058
 C 2.246329 0.008025 0.051412
 C 3.652427 0.073284 0.055261
 C 4.509088 1.157920 0.057527
 C 5.826180 0.658053 0.061179
 C 5.744654 -0.714505 0.061052
 N 4.431652 -1.055941 0.057473
 H -0.019195 -0.102148 0.045050
 H 4.198074 2.190306 0.056599
 H 6.737325 1.234989 0.063637
 H 6.517656 -1.466036 0.063226
 H 4.065924 -1.990995 0.056536