16
charge = 0
 C 2.716733 0.985753 -0.350784
 C 2.211477 -0.226974 -0.123481
 C 2.927678 -1.319600 0.495940
 C 2.461253 -2.553655 0.705388
 C 3.489546 -3.423518 1.341417
 N 4.544670 -2.481115 1.702557
 C 4.347451 -1.228761 0.977841
 H 2.127455 1.761470 -0.824131
 H 3.732854 1.242738 -0.072160
 H 1.187088 -0.438844 -0.420637
 H 1.469858 -2.901021 0.440512
 H 3.819792 -4.207067 0.637588
 H 3.101679 -3.945995 2.226107
 H 5.467664 -2.863413 1.569684
 H 5.028999 -1.101277 0.120426
 H 4.500182 -0.363312 1.634943