16
charge = 0
 C 1.218958 -0.115623 0.765793
 C 2.324636 -0.066530 0.297136
 C 3.675214 -0.022892 -0.241278
 C 4.502702 1.140871 0.348166
 C 5.338205 0.488666 1.480349
 N 4.977357 -0.926397 1.543947
 C 4.492335 -1.251673 0.217786
 H 0.234788 -0.154363 1.168849
 H 3.616880 0.040289 -1.331862
 H 3.858115 1.941646 0.709801
 H 5.151283 1.561968 -0.422517
 H 5.175736 0.961766 2.449722
 H 6.404981 0.576890 1.253306
 H 4.216521 -1.047756 2.202073
 H 3.915497 -2.176525 0.218784
 H 5.345723 -1.378736 -0.458135