14
charge = 0
 C 0.953736 0.000756 -0.042293
 C 2.154099 -0.082820 -0.083904
 C 3.564859 -0.115713 -0.133763
 C 4.355923 -1.189289 -0.197208
 C 5.796146 -0.775165 -0.157270
 N 5.779723 0.680671 -0.323318
 C 4.419212 1.133440 -0.040542
 H -0.108173 0.059432 -0.005954
 H 4.016182 -2.216930 -0.213569
 H 6.406601 -1.252216 -0.930076
 H 6.243482 -1.056493 0.807604
 H 5.996911 0.895508 -1.286218
 H 4.105482 1.915312 -0.736518
 H 4.340819 1.554997 0.970442