15
charge = 0
 C 1.812959 -1.069962 -1.035080
 C 1.764737 0.148937 -0.513449
 C 2.808191 1.163041 -0.704711
 C 2.514669 2.604994 -0.807447
 N 3.053392 2.073525 0.439662
 N 4.439738 2.355458 0.535339
 C 4.838576 2.384210 1.732416
 H 1.013089 -1.783682 -0.879643
 H 2.654030 -1.394771 -1.639416
 H 0.915182 0.451993 0.093406
 H 3.708370 0.836632 -1.216563
 H 1.493097 2.960556 -0.735333
 H 3.190544 3.204041 -1.407289
 H 5.890635 2.589256 1.908962
 H 4.168394 2.212771 2.576438