20
charge = 0
 C 0.962685 0.269574 0.108833
 C 2.466907 0.047448 0.093386
 C 2.934920 -0.830198 -1.044263
 C 4.405589 -1.275572 -1.082197
 N 3.964057 -2.603466 -1.532698
 C 2.599258 -2.339202 -1.039412
 C 1.488158 -2.869662 -1.910761
 H 0.665623 0.924956 0.930700
 H 0.423053 -0.673584 0.228251
 H 0.621511 0.728706 -0.823114
 H 2.783269 -0.399806 1.043245
 H 2.979168 1.014753 0.029058
 H 2.643685 -0.394930 -2.006261
 H 4.848113 -1.264409 -0.075831
 H 5.082198 -0.759871 -1.769294
 H 4.439411 -3.392122 -1.112653
 H 2.454281 -2.675622 0.000584
 H 1.616060 -2.521904 -2.938287
 H 0.510167 -2.542215 -1.547574
 H 1.491787 -3.963383 -1.923422