13
charge = 0
 C 0.895864 0.013933 0.101770
 C 2.096362 0.024068 0.075634
 C 3.554307 0.042851 0.046828
 C 4.179350 -1.138970 -0.755082
 N 4.588049 -0.583693 -2.039227
 C 4.490284 0.675771 -1.928915
 N 4.085140 1.181302 -0.708487
 H -0.168408 0.001119 0.119765
 H 3.924897 0.061537 1.075044
 H 3.475019 -1.961105 -0.888100
 H 5.058933 -1.528399 -0.232431
 H 4.748504 1.367768 -2.725283
 H 3.547109 2.034627 -0.700015