15
charge = 0
 C 1.101962 -0.092552 -0.039158
 C 2.591465 0.040911 -0.101272
 C 3.245200 0.212906 -1.249799
 C 2.693412 0.308077 -2.656147
 N 3.842960 0.495881 -3.540617
 C 4.862522 0.505955 -2.779845
 N 4.617494 0.349228 -1.439102
 H 0.761883 -0.225524 0.988419
 H 0.739806 -0.952732 -0.614122
 H 0.590873 0.791532 -0.437699
 H 3.152539 -0.005093 0.826989
 H 1.992585 1.144314 -2.763733
 H 2.141392 -0.595707 -2.939849
 H 5.882045 0.628597 -3.130731
 H 5.309271 0.334996 -0.712945