19
charge = 0
 C 1.695317 -1.244828 0.356794
 C 2.572350 -0.004181 0.293405
 C 3.305831 0.164756 -1.015422
 C 4.310334 -0.900801 -1.376929
 N 5.365067 -0.944515 -0.377267
 C 2.649246 0.913237 -2.103570
 N 3.769698 1.509218 -1.372689
 H 1.140516 -1.279396 1.297114
 H 2.291791 -2.157754 0.297939
 H 0.969753 -1.262741 -0.461129
 H 3.310845 -0.037504 1.100203
 H 1.955987 0.888009 0.456790
 H 4.670394 -0.689989 -2.394180
 H 3.816488 -1.877304 -1.405472
 H 5.875066 -0.068563 -0.400032
 H 6.027039 -1.680966 -0.584748
 H 1.650056 1.297067 -1.919361
 H 2.857185 0.668859 -3.140566
 H 3.419746 2.183996 -0.699990