11
charge = 0
 C 0.955098 -0.080476 0.067801
 C 2.157157 -0.077079 0.071026
 C 3.572524 -0.055438 0.074782
 C 4.381097 1.055071 0.074206
 N 5.654867 0.571075 0.078836
 C 5.575411 -0.784337 0.081980
 N 4.340119 -1.197567 0.079682
 H -0.108777 -0.093130 0.064973
 H 4.153361 2.107530 0.070985
 H 6.496457 1.120490 0.079736
 H 6.451685 -1.415449 0.085903