11
charge = 0
 C 0.969419 -0.022187 -0.038162
 C 2.167469 -0.022375 -0.085513
 C 3.615020 -0.022424 -0.154158
 C 4.253302 1.101658 -0.914506
 N 5.067210 0.689947 -1.801999
 N 5.067216 -0.737484 -1.800833
 C 4.253303 -1.147745 -0.912675
 H -0.094493 -0.022225 0.001007
 H 4.028898 -0.021584 0.868041
 H 4.080682 2.155865 -0.735227
 H 4.080685 -2.201656 -0.731666