13
charge = 0
 C 1.058575 -0.003876 -0.464503
 C 2.233996 0.004584 -0.222144
 C 3.651408 0.018690 0.078947
 C 4.196103 -1.265682 0.720635
 N 5.306921 -0.733811 1.509976
 N 4.993705 0.549009 1.902765
 C 4.089682 1.010539 1.138519
 H 0.016370 -0.011030 -0.680257
 H 4.207644 0.236714 -0.845229
 H 4.538132 -1.997417 -0.010416
 H 3.420137 -1.716910 1.353187
 H 5.585072 -1.285812 2.308053
 H 3.742565 2.031403 1.221659