15
charge = 0
 C 2.803023 -1.440158 0.108396
 C 2.325672 -0.006139 -0.044716
 C 2.892453 0.938945 1.021284
 C 2.426035 2.350294 0.937210
 N 3.381106 3.191130 0.843155
 N 4.614302 2.471095 0.852060
 C 4.352746 1.225255 0.947918
 H 2.352996 -2.080108 -0.653195
 H 2.531033 -1.845779 1.086573
 H 3.887343 -1.519534 0.004067
 H 1.233880 0.026275 0.016504
 H 2.593255 0.379111 -1.032864
 H 2.651431 0.532542 2.015732
 H 1.392035 2.677870 0.949579
 H 5.151919 0.493490 0.978607