18
charge = 0
 C 2.426893 1.339093 -0.052218
 C 2.470534 -0.177409 -0.157887
 C 2.988722 -0.832212 1.091387
 N 3.452430 -2.207987 1.078846
 C 4.436629 -1.125414 1.239999
 C 5.123707 -1.048641 2.535929
 C 6.357294 -0.590212 2.705181
 H 2.036580 1.788571 -0.967720
 H 3.423051 1.750166 0.128165
 H 1.783874 1.656672 0.772699
 H 3.102782 -0.477180 -1.002460
 H 1.466300 -0.562282 -0.371419
 H 2.443317 -0.576394 1.998489
 H 3.481399 -2.559000 0.126344
 H 5.051256 -0.880130 0.375818
 H 4.548134 -1.399985 3.389186
 H 6.954836 -0.246247 1.866419
 H 6.814350 -0.542619 3.686064