16
charge = 0
 C 2.830259 1.300089 0.202171
 C 2.447778 -0.146229 -0.070890
 C 3.028843 -1.100731 0.932218
 N 3.106332 -2.523915 0.657951
 C 4.349301 -1.735968 0.682521
 C 5.286966 -2.001320 1.735211
 C 6.087551 -2.197738 2.608339
 H 2.382866 1.971855 -0.533164
 H 3.913954 1.434658 0.167123
 H 2.489453 1.616551 1.191224
 H 2.779736 -0.440052 -1.074052
 H 1.356493 -0.249306 -0.063352
 H 2.790064 -0.885055 1.971157
 H 2.850384 -2.708197 -0.307898
 H 4.805547 -1.501865 -0.276624
 H 6.790382 -2.381106 3.385967