14
charge = 0
 C 0.854295 0.074475 -0.483835
 C 2.009987 0.009410 -0.166238
 C 3.429899 -0.050733 0.185584
 N 3.768522 -1.235560 0.973768
 C 4.727802 -0.876627 2.012408
 C 4.602827 0.610266 2.085085
 C 3.879420 1.076217 1.080063
 H -0.174515 0.123926 -0.751479
 H 3.993455 0.004535 -0.763832
 H 4.064202 -2.009659 0.399844
 H 5.765287 -1.162689 1.771730
 H 4.479471 -1.360509 2.965212
 H 5.064433 1.204825 2.863022
 H 3.631905 2.108703 0.875277