15
charge = 0
 C 1.118686 0.032785 0.471388
 C 2.232250 0.067614 -0.253202
 C 3.014740 1.267254 -0.524512
 N 4.171252 1.213608 -1.069358
 C 4.665767 2.583943 -1.121364
 C 3.443323 3.474728 -0.846309
 N 2.566955 2.530171 -0.161191
 H 0.588759 -0.896739 0.639430
 H 0.709385 0.919370 0.943612
 H 2.647323 -0.834739 -0.687889
 H 5.141959 2.791438 -2.081604
 H 5.430541 2.711121 -0.345218
 H 2.991097 3.832057 -1.780322
 H 3.672625 4.338608 -0.220331
 H 1.573848 2.691484 -0.223640