17
charge = 0
 C 2.796612 0.376676 1.530955
 C 3.130077 0.050005 0.088563
 C 3.369399 -1.402135 -0.160672
 N 3.339607 -2.308885 0.733820
 C 3.684627 -3.561881 0.066965
 C 3.570184 -3.273397 -1.439371
 N 3.706556 -1.822089 -1.440393
 H 2.629955 1.449104 1.651255
 H 3.606538 0.072581 2.194630
 H 1.900055 -0.153799 1.853578
 H 4.023613 0.595531 -0.236201
 H 2.323998 0.385305 -0.576455
 H 3.032650 -4.373339 0.395529
 H 4.710641 -3.837615 0.339373
 H 2.593456 -3.584546 -1.832668
 H 4.350494 -3.754922 -2.031183
 H 3.318038 -1.307885 -2.215428