13
charge = 0
 C 1.104592 0.010324 0.226888
 C 2.305262 -0.015348 0.132685
 C 3.707580 0.051409 0.024318
 N 4.460092 -0.992862 -0.054209
 N 5.730859 -0.614696 -0.143864
 C 5.938679 0.824052 -0.139462
 C 4.496801 1.345039 -0.010737
 H 0.043928 0.007959 0.309581
 H 6.435213 -1.321461 -0.219979
 H 6.420622 1.159147 -1.063379
 H 6.568943 1.132011 0.700648
 H 4.196035 1.969607 -0.854783
 H 4.338083 1.929819 0.898104