18
charge = 0
 C 0.953409 0.171070 0.442114
 C 2.443382 0.184259 0.401846
 C 3.202707 1.219066 0.749383
 C 4.672068 1.299184 0.676880
 C 5.513112 0.252726 -0.001439
 C 5.375162 1.586401 -0.643034
 N 6.517254 2.435323 -0.771786
 H 0.529754 -0.014064 -0.550597
 H 0.555366 1.120045 0.807407
 H 0.582087 -0.627544 1.092608
 H 2.922863 -0.733046 0.065513
 H 2.706632 2.123549 1.102502
 H 5.143661 1.784440 1.527787
 H 5.026044 -0.596759 -0.462700
 H 6.467839 0.015876 0.455391
 H 4.711828 1.627206 -1.501888
 H 7.211121 2.227347 -0.065547
 H 6.264092 3.411420 -0.678360