16
charge = 0
 C 4.554493 -1.700854 -1.483111
 C 4.086247 -0.908357 -0.711722
 C 3.543618 0.028576 0.256652
 C 4.381839 0.100179 1.535959
 C 3.636839 0.772198 2.704716
 C 3.368302 -0.653445 3.216027
 N 4.430827 -1.137138 2.323230
 H 4.966786 -2.395930 -2.175577
 H 2.517004 -0.264580 0.506344
 H 3.485524 1.027335 -0.191116
 H 5.371435 0.497520 1.288854
 H 2.773544 1.387120 2.448703
 H 4.302738 1.335352 3.357551
 H 2.360029 -1.008360 2.967102
 H 3.548788 -0.844421 4.276961
 H 4.257485 -1.993805 1.811428