18
charge = 0
 C 1.001596 -0.288832 -0.740825
 C 2.488112 -0.242291 -0.646950
 C 3.280669 -1.304502 -0.569357
 C 4.764592 -1.285811 -0.498349
 C 5.527387 0.001829 -0.147543
 C 6.312127 -0.863795 0.849042
 N 5.366258 -1.995403 0.673192
 H 0.536527 0.265896 0.080396
 H 0.630326 -1.315051 -0.713566
 H 0.651234 0.175878 -1.668132
 H 2.939530 0.748492 -0.655998
 H 2.834825 -2.299901 -0.571569
 H 5.165733 -1.745672 -1.411820
 H 4.894161 0.737966 0.351894
 H 6.084307 0.490838 -0.948157
 H 6.399059 -0.486634 1.870123
 H 7.311287 -1.137349 0.498166
 H 4.693869 -1.997369 1.432963