18
charge = 0
 C 0.927087 -0.099696 -0.286147
 C 2.405156 -0.113481 -0.469320
 C 3.203234 0.935716 -0.317049
 C 4.671676 0.913142 -0.493520
 C 5.360548 0.081809 -1.505879
 N 5.225759 1.511317 -1.697463
 C 6.431341 2.287885 -1.525084
 H 0.619359 -0.809446 0.488485
 H 0.414326 -0.399642 -1.205727
 H 0.567733 0.891567 -0.003479
 H 2.850277 -1.066458 -0.751251
 H 2.774442 1.895309 -0.030009
 H 5.245491 1.101627 0.416411
 H 4.784954 -0.540514 -2.182674
 H 6.344983 -0.303773 -1.248693
 H 6.990025 2.304681 -2.464007
 H 7.092437 1.891861 -0.736836
 H 6.168565 3.316795 -1.267858