16
charge = 0
 C 0.965540 -0.030618 0.115859
 C 2.415263 -0.038709 0.086273
 C 3.617577 -0.037621 0.051399
 C 5.052447 -0.053860 0.036452
 C 5.836497 -0.818659 -0.974286
 N 5.750859 0.617592 -1.052032
 C 6.937265 1.349158 -0.671022
 H 0.568573 0.801151 -0.471759
 H 0.595472 0.075744 1.138744
 H 0.556331 -0.957312 -0.294650
 H 5.520022 0.021206 1.017732
 H 5.310685 -1.368970 -1.746259
 H 6.771102 -1.259941 -0.633399
 H 7.594558 1.442103 -1.538658
 H 7.503595 0.864788 0.141033
 H 6.655824 2.352847 -0.345715