16
charge = 0
 C 1.074059 -0.032719 -0.016503
 C 2.524055 -0.021237 -0.043553
 C 3.727879 -0.009178 -0.062447
 C 5.161674 -0.018952 -0.085791
 N 5.874204 -0.555023 -1.257313
 C 5.904691 0.878887 -1.008405
 C 7.226521 1.471228 -0.628641
 H 0.675394 -0.850966 -0.621778
 H 0.662941 0.903503 -0.402710
 H 0.706793 -0.163947 1.004482
 H 5.637941 -0.273046 0.857344
 H 5.196611 -0.775791 -1.979642
 H 5.274125 1.498804 -1.641089
 H 7.781970 0.782243 0.010234
 H 7.093289 2.415173 -0.094157
 H 7.831673 1.665611 -1.518050