18
charge = 0
 C 1.377077 -0.412271 -0.788034
 C 2.440132 -0.046519 -0.085693
 C 3.153263 -0.902189 0.907158
 C 4.615166 -1.148491 0.531404
 C 5.353593 -1.955677 1.559924
 C 6.800616 -1.771179 1.766003
 N 5.846689 -1.322536 2.780167
 H 0.907757 0.257206 -1.499607
 H 0.934075 -1.397024 -0.672586
 H 2.850878 0.951396 -0.236428
 H 2.633231 -1.859880 1.010901
 H 3.120852 -0.420620 1.892676
 H 5.128508 -0.188181 0.393517
 H 4.655750 -1.660697 -0.436390
 H 4.943944 -2.947866 1.738867
 H 7.300203 -1.023562 1.156666
 H 7.424601 -2.607688 2.061304
 H 5.726376 -0.316003 2.717371