14
charge = 0
 C 1.203022 -0.025975 0.420334
 C 2.465558 -0.107467 -0.008214
 C 2.959656 -1.297352 -0.621456
 C 3.413563 -2.279623 -1.146491
 C 3.448854 1.008521 0.102603
 C 3.367479 1.997301 1.189777
 N 4.435615 0.999833 1.184303
 H 0.526635 -0.866910 0.330806
 H 0.821037 0.886922 0.859742
 H 3.808279 -3.152846 -1.609676
 H 3.874653 1.316786 -0.848915
 H 2.569017 1.894098 1.916663
 H 3.691308 3.016694 1.010694
 H 4.211443 0.255620 1.838240