14
charge = 0
 C 0.910315 0.006466 -0.007387
 C 2.106434 -0.125749 0.006465
 C 3.515983 -0.255554 0.057461
 C 4.239174 -0.916337 -0.852037
 C 5.701962 -1.098669 -0.807672
 C 6.464405 -1.028866 0.450746
 N 6.263395 -2.318767 -0.204664
 H -0.147924 0.117764 -0.026701
 H 4.012046 0.228753 0.894646
 H 3.726592 -1.365984 -1.699237
 H 6.215950 -0.827553 -1.726913
 H 5.923396 -0.828038 1.369249
 H 7.484934 -0.662601 0.436018
 H 5.520048 -2.823356 0.269938