18
charge = 0
 C 0.727594 0.007592 -0.062561
 C 2.243220 0.116022 -0.016895
 C 2.861870 0.630671 -1.285099
 C 2.224177 0.974838 -2.395168
 C 2.687784 0.967778 1.152074
 C 2.891018 0.364825 2.480927
 N 4.033143 0.839378 1.699181
 H 0.398153 -0.646450 -0.872648
 H 0.268203 0.987987 -0.214219
 H 0.347652 -0.398058 0.877035
 H 2.656080 -0.890001 0.159581
 H 3.945138 0.735582 -1.254172
 H 1.146643 0.901358 -2.491037
 H 2.765371 1.346796 -3.257333
 H 2.342813 1.998781 1.106404
 H 2.734873 -0.706568 2.571960
 H 2.683132 0.932884 3.380995
 H 4.508538 0.050385 1.271386