16
charge = 0
 C 0.977139 0.001371 -0.047383
 C 2.427140 0.054058 -0.055253
 C 3.628531 0.099352 -0.061931
 C 5.083235 0.172953 -0.079070
 C 5.611885 1.357862 -0.851998
 C 6.904854 1.250946 -1.551056
 N 5.654576 1.325052 -2.304926
 H 0.553461 0.827290 -0.624248
 H 0.586499 0.068494 0.971139
 H 0.615171 -0.932598 -0.484607
 H 5.493587 -0.748469 -0.511004
 H 5.457371 0.219791 0.950535
 H 5.316330 2.323075 -0.450088
 H 7.425711 0.299145 -1.496074
 H 7.550903 2.116898 -1.645490
 H 5.385816 0.405970 -2.642055