18
charge = 0
 C 1.952120 -1.304834 -0.576258
 C 2.562267 -0.055332 0.049735
 C 3.071237 0.911693 -0.967860
 C 4.330572 1.322569 -1.068072
 C 4.865036 2.258462 -2.077856
 C 5.305622 1.766527 -3.405346
 N 4.126128 2.616571 -3.277072
 H 1.557696 -1.976502 0.189654
 H 2.696156 -1.853427 -1.158586
 H 1.128937 -1.047145 -1.248148
 H 3.375577 -0.334017 0.726562
 H 1.800344 0.439967 0.664253
 H 2.327472 1.291834 -1.668667
 H 5.059030 0.962650 -0.342136
 H 5.427758 3.091360 -1.660358
 H 5.160745 0.710679 -3.611106
 H 6.155860 2.225073 -3.899063
 H 3.287833 2.050162 -3.352157