22
charge = 0
 C 3.052587 0.806574 -0.431481
 C 2.222780 -0.418688 -0.080341
 C 2.375344 -0.884950 1.362815
 C 3.759314 -1.409988 1.716929
 C 3.854745 -1.923124 3.145032
 C 5.222786 -2.486918 3.519309
 N 6.339421 -1.556367 3.518147
 H 2.866289 1.129457 -1.458428
 H 4.124041 0.613659 -0.340426
 H 2.810568 1.645375 0.228143
 H 2.483803 -1.243493 -0.754058
 H 1.166628 -0.198974 -0.268560
 H 1.640462 -1.673842 1.561172
 H 2.119570 -0.058197 2.037997
 H 4.502199 -0.619692 1.562588
 H 4.024523 -2.220356 1.024624
 H 3.100630 -2.705714 3.296787
 H 3.598298 -1.114622 3.842436
 H 5.474059 -3.307280 2.837398
 H 5.163906 -2.933338 4.517128
 H 6.487114 -1.169817 2.594572
 H 6.153723 -0.776696 4.138126