12
charge = 0
 C 1.032655 0.191252 0.229114
 C 2.337244 -0.019170 0.073763
 C 3.112266 -1.055933 0.854495
 C 3.688325 -2.088890 0.007875
 C 4.157495 -2.934981 -0.700312
 C 3.083548 0.767472 -0.859092
 N 3.704434 1.401921 -1.592714
 H 0.458282 -0.398678 0.933538
 H 0.511462 0.950295 -0.340110
 H 2.442814 -1.508712 1.590728
 H 3.914762 -0.560266 1.412743
 H 4.578215 -3.682210 -1.331038