14
charge = 0
 C 1.072888 -0.157910 0.528389
 C 2.377794 -0.024025 0.296478
 C 2.931042 0.420840 -0.965307
 C 4.235406 0.560955 -1.199604
 C 4.798693 1.046467 -2.501267
 C 5.758687 0.111870 -3.077694
 N 6.519727 -0.627479 -3.519614
 H 0.698921 -0.496340 1.486648
 H 0.337323 0.066279 -0.237444
 H 3.089810 -0.258106 1.084541
 H 2.218934 0.649796 -1.756717
 H 4.955399 0.325331 -0.420421
 H 5.316955 2.003344 -2.363616
 H 3.999722 1.217347 -3.227671