14
charge = 0
 C 0.923845 -0.237866 0.886041
 C 2.055997 -0.452155 0.224095
 C 2.641095 0.467214 -0.758182
 C 1.918291 1.179232 -1.619079
 C 4.151187 0.576383 -0.752844
 C 4.808941 -0.701602 -0.992470
 N 5.319114 -1.715265 -1.175733
 H 0.539739 -0.967470 1.588623
 H 0.352500 0.675091 0.756091
 H 2.622554 -1.359891 0.423131
 H 0.839402 1.087608 -1.652081
 H 2.381926 1.860557 -2.323225
 H 4.499148 0.949704 0.217032
 H 4.484250 1.285261 -1.513998