14
charge = 0
 C 1.479007 -0.436875 1.031358
 C 2.334112 0.011792 0.127843
 C 3.083770 -0.881617 -0.830830
 C 2.713253 -0.586939 -2.264403
 C 2.128329 -1.462108 -3.064892
 C 4.527344 -0.712478 -0.644380
 N 5.658108 -0.559088 -0.503661
 H 0.948750 0.242197 1.688050
 H 1.276756 -1.496576 1.149670
 H 2.527664 1.076386 0.028814
 H 2.843479 -1.925925 -0.607548
 H 2.946600 0.414754 -2.614819
 H 1.892710 -2.468995 -2.735449
 H 1.863519 -1.202127 -4.082654