14
charge = 0
 C 1.314088 -0.393636 0.869957
 C 2.150871 0.179200 0.017644
 C 2.957430 -0.558418 -1.010476
 C 4.423212 -0.409295 -0.773687
 C 5.270711 0.148932 -1.638812
 C 6.661259 0.281595 -1.375767
 N 7.791536 0.399486 -1.183865
 H 0.756721 0.189639 1.593387
 H 1.151840 -1.467203 0.872277
 H 2.292322 1.257319 0.045916
 H 2.711768 -0.193876 -2.013708
 H 2.694642 -1.621663 -0.973971
 H 4.802988 -0.771855 0.177985
 H 4.927091 0.528173 -2.596680