14
charge = 0
 C 1.263536 0.480030 -1.062901
 C 1.919671 -0.224770 -0.153001
 C 2.832248 0.357936 0.872985
 C 4.267220 -0.098771 0.755062
 C 4.780925 -0.753919 -0.284689
 C 5.108157 0.233732 1.864663
 N 5.752890 0.520774 2.775312
 H 0.595712 0.006034 -1.772668
 H 1.365047 1.559046 -1.126931
 H 1.793405 -1.305168 -0.121443
 H 2.477678 0.091665 1.876129
 H 2.807957 1.452165 0.828015
 H 4.161604 -1.002049 -1.138006
 H 5.823059 -1.045397 -0.306026