16
charge = 0
 C 1.375724 0.544434 -1.133486
 C 2.172995 0.103090 -0.170285
 C 3.038994 -1.110475 -0.260978
 C 4.529067 -0.788981 -0.152572
 C 5.050919 0.066655 -1.309324
 C 4.936687 -0.606135 -2.594370
 N 4.836547 -1.155521 -3.599616
 H 0.770993 1.434974 -1.006085
 H 1.294631 0.024245 -2.083156
 H 2.224666 0.657236 0.766763
 H 2.843536 -1.638283 -1.199653
 H 2.781424 -1.800825 0.550096
 H 5.101287 -1.719031 -0.106785
 H 4.726320 -0.247617 0.777831
 H 6.101771 0.324601 -1.152469
 H 4.490548 1.004513 -1.370300