10
charge = 0
 C 0.840453 -0.041916 -0.031628
 C 2.044992 -0.057056 -0.037980
 C 3.408148 -0.073720 -0.044972
 C 4.613205 -0.088379 -0.051123
 C 6.065663 -0.089737 -0.051667
 C 6.638197 -1.329846 -0.570641
 N 7.108517 -2.296050 -0.974987
 H -0.224067 -0.030998 -0.027045
 H 6.443885 0.064096 0.965449
 H 6.443909 0.742687 -0.656018