10
charge = 0
 C 0.945693 -0.102851 -0.099318
 C 2.141561 -0.088804 -0.035634
 C 3.597497 -0.074240 0.030669
 C 4.105710 0.219154 1.360769
 C 4.536620 0.461209 2.458130
 C 5.025621 0.736263 3.705130
 N 5.440512 0.968427 4.757685
 H -0.117627 -0.114761 -0.152940
 H 3.992948 0.669202 -0.671900
 H 3.992874 -1.044300 -0.293903