12
charge = 0
 C 0.940689 -0.024089 -0.074072
 C 2.421065 0.077251 -0.011651
 C 3.083134 1.079287 0.596302
 C 2.421321 2.156090 1.248798
 C 1.855537 3.062777 1.798058
 C 4.514561 1.088820 0.603181
 N 5.665978 1.095330 0.608038
 H 0.624746 -0.914843 -0.614592
 H 0.511194 0.853560 -0.566490
 H 0.510282 -0.055086 0.931413
 H 3.018428 -0.697433 -0.480872
 H 1.361046 3.869295 2.286649