20
charge = 0
 C 0.789613 -0.724018 1.024532
 C 2.257928 -0.859685 0.805467
 C 3.199233 -0.257511 1.522120
 C 4.674195 -0.385892 1.307276
 C 5.306088 0.968216 0.999560
 C 5.330210 -1.041000 2.525902
 N 6.747432 -1.281397 2.300479
 H 0.291679 -0.323857 0.135334
 H 0.571105 -0.060466 1.863653
 H 0.328561 -1.695663 1.229688
 H 2.566282 -1.506817 -0.015631
 H 2.895621 0.396275 2.342056
 H 4.834418 -1.052076 0.448487
 H 5.095504 1.679815 1.804461
 H 4.905930 1.385035 0.072956
 H 6.389216 0.873357 0.911315
 H 4.762417 -1.949216 2.778254
 H 5.235080 -0.362278 3.381336
 H 6.874125 -2.016341 1.614778
 H 7.197563 -1.593071 3.151179