18
charge = 0
 C 3.517447 1.316266 0.475275
 C 2.659616 0.131646 0.156352
 C 1.334368 0.162045 0.330197
 C 3.295344 -1.076614 -0.356314
 C 4.602172 -1.243433 -0.567292
 C 5.214886 -2.500382 -1.084517
 N 6.038290 -2.217933 -2.253030
 H 2.914138 2.148511 0.838350
 H 4.069836 1.651037 -0.407629
 H 4.259132 1.069426 1.240675
 H 0.831068 1.044214 0.708839
 H 0.717238 -0.699224 0.098239
 H 2.622899 -1.904997 -0.574737
 H 5.300040 -0.432209 -0.375750
 H 4.423294 -3.246263 -1.254464
 H 5.877715 -2.914773 -0.314583
 H 5.458285 -1.905662 -3.022132
 H 6.525634 -3.050466 -2.558990