14
charge = 0
 C 1.014611 0.048771 0.293557
 C 2.462278 0.069014 -0.089536
 C 3.143084 1.101755 -0.622994
 C 2.615716 2.406996 -0.936664
 C 3.364332 3.376720 -1.465850
 C 3.172557 -1.146754 0.145826
 N 3.715144 -2.143856 0.349199
 H 0.526959 1.000109 0.091888
 H 0.905012 -0.177407 1.357372
 H 0.485848 -0.734299 -0.256065
 H 4.195820 0.948125 -0.843379
 H 1.568229 2.603429 -0.732474
 H 4.415647 3.221701 -1.685315
 H 2.950445 4.350885 -1.694685