12
charge = 0
 C 0.982077 -0.094416 -0.072032
 C 2.464370 0.037083 0.051995
 C 3.100736 0.899866 0.865988
 C 2.446529 1.809156 1.723902
 C 1.926910 2.598906 2.468954
 C 3.254281 -0.827371 -0.763608
 N 3.860363 -1.540525 -1.436461
 H 0.479872 0.608476 0.591150
 H 0.666430 -1.110620 0.178062
 H 0.666395 0.096196 -1.101042
 H 4.186199 0.912047 0.877452
 H 1.464728 3.296913 3.126929