16
charge = 0
 C 0.900374 0.030986 0.127138
 C 2.427917 0.015542 -0.043075
 C 3.063462 -0.912002 1.004916
 C 2.777397 -0.472597 -1.428864
 C 3.443951 0.191072 -2.359119
 C 2.935844 1.373651 0.164241
 N 3.330214 2.439778 0.337710
 H 0.509495 -0.976734 -0.030157
 H 0.434317 0.701310 -0.595574
 H 0.628454 0.354568 1.133420
 H 2.695251 -1.929617 0.856908
 H 2.798451 -0.591347 2.013975
 H 4.149838 -0.918521 0.912158
 H 2.419639 -1.480579 -1.629712
 H 3.814032 1.197123 -2.190663
 H 3.640975 -0.256645 -3.325801