16
charge = 0
 C 0.824730 0.087070 -0.092080
 C 2.347430 -0.034281 -0.057015
 C 3.000042 1.340344 0.080657
 C 2.768643 -0.920367 1.065765
 C 3.437997 -2.064933 0.922814
 C 3.817725 -2.876636 2.026267
 N 4.134842 -3.548956 2.907161
 H 0.513956 0.730903 -0.918263
 H 0.448455 0.529149 0.834957
 H 0.348642 -0.887081 -0.218871
 H 2.683680 -0.488545 -0.996006
 H 2.695220 1.823829 1.013259
 H 2.697632 1.988790 -0.745019
 H 4.089303 1.268073 0.078433
 H 2.501197 -0.592671 2.069197
 H 3.724606 -2.428686 -0.059557