16
charge = 0
 C 1.027691 0.093684 0.162065
 C 2.545552 0.069804 0.007480
 C 3.239422 0.094932 1.366211
 C 2.988423 -1.123178 -0.805241
 C 3.623129 -1.046160 -1.974222
 C 2.691151 -2.413090 -0.255693
 N 2.436533 -3.433255 0.215590
 H 0.719699 0.979113 0.722653
 H 0.677649 -0.786724 0.707562
 H 0.527927 0.111624 -0.808601
 H 2.854033 0.954043 -0.560053
 H 2.971452 -0.785098 1.956921
 H 2.935445 0.980732 1.928387
 H 4.325938 0.113137 1.259252
 H 3.857981 -0.081067 -2.408516
 H 3.920476 -1.932497 -2.520294