14
charge = 0
 C 0.901171 -0.024938 -0.057450
 C 2.430733 0.024391 -0.070079
 C 2.971390 0.605362 -1.378630
 C 2.931375 0.771384 1.070738
 C 3.339145 1.405745 2.012485
 C 3.802919 2.121004 3.080708
 N 4.194785 2.726968 3.983243
 H 0.546429 -0.631264 -0.893340
 H 0.484246 0.978976 -0.159390
 H 0.525368 -0.459275 0.869746
 H 2.809305 -1.000574 0.034138
 H 2.616101 1.628043 -1.519889
 H 2.624482 0.001428 -2.219523
 H 4.061962 0.617460 -1.387258