22
charge = 0
 C 1.905620 0.409981 1.094963
 C 3.379383 0.547502 0.738227
 C 4.255228 0.183105 1.928957
 C 3.701298 -0.294357 -0.493851
 C 5.118297 -0.171000 -1.041910
 C 5.319362 -1.110775 -2.225919
 N 5.405639 1.226962 -1.345065
 H 1.643855 1.041023 1.948341
 H 1.662162 -0.624033 1.361739
 H 1.262617 0.695908 0.257870
 H 3.580299 1.593546 0.483431
 H 4.145693 -0.876430 2.185743
 H 3.975531 0.766478 2.810159
 H 5.311281 0.376591 1.730613
 H 3.001301 -0.026313 -1.298133
 H 3.506224 -1.350302 -0.267582
 H 5.820504 -0.467779 -0.253948
 H 4.629102 -0.858636 -3.037777
 H 5.142229 -2.153790 -1.947373
 H 6.338099 -1.036343 -2.616388
 H 4.787653 1.553059 -2.081458
 H 6.350624 1.325012 -1.696859