18
charge = 0
 C 0.889777 -0.075414 -0.013806
 C 2.340643 -0.030933 -0.023862
 C 3.543207 0.000532 -0.031207
 C 4.998797 0.053246 -0.035589
 C 5.576508 1.183569 -0.889016
 C 5.274755 1.035402 -2.367387
 N 5.873237 2.130806 -3.117700
 H 0.470181 0.580798 -0.780786
 H 0.491903 0.244297 0.952765
 H 0.526290 -1.088130 -0.206412
 H 5.392254 -0.907444 -0.389125
 H 5.351602 0.163428 0.995163
 H 6.661082 1.219416 -0.752571
 H 5.178328 2.139300 -0.529918
 H 4.186845 0.943519 -2.502245
 H 5.716536 0.099971 -2.728692
 H 5.440430 3.008898 -2.855471
 H 5.710514 2.012830 -4.109832