12
charge = 0
 C 0.862533 0.097662 -0.026366
 C 2.307946 0.042321 -0.036555
 C 3.512956 -0.008589 -0.055320
 C 4.920715 -0.045463 -0.031080
 C 5.676116 -0.555050 -1.017401
 C 7.091553 -0.571339 -0.950645
 N 8.244054 -0.595572 -0.918667
 H 0.436279 -0.905145 -0.113747
 H 0.492432 0.692247 -0.865725
 H 0.493245 0.546258 0.898543
 H 5.410473 0.367896 0.846848
 H 5.224008 -0.976047 -1.908275