16
charge = 0
 C 1.121183 0.060819 0.176783
 C 2.568223 0.060552 0.094423
 C 3.770626 0.045609 0.002162
 C 5.195395 0.059900 -0.047018
 C 5.871338 -0.552473 -1.020899
 C 5.882026 0.823299 1.055767
 N 5.530168 0.282675 2.361377
 H 0.674047 0.194561 -0.811619
 H 0.762384 0.867859 0.820334
 H 0.752474 -0.884051 0.585222
 H 5.361646 -1.076378 -1.819823
 H 6.954925 -0.539143 -1.034664
 H 5.619211 1.887341 0.937126
 H 6.962634 0.736970 0.917003
 H 4.520837 0.263412 2.457982
 H 5.886304 0.883148 3.094665