18
charge = 0
 C 1.411359 0.807748 -0.015404
 C 2.786267 0.354168 0.082857
 C 3.923546 -0.024589 0.177344
 C 5.315351 -0.481799 0.261461
 C 5.989793 -0.276794 -1.103016
 C 5.350899 -1.963612 0.638464
 N 5.975925 0.265592 1.337503
 H 1.263253 1.434939 -0.898140
 H 1.130282 1.393031 0.863748
 H 0.723823 -0.038910 -0.086338
 H 5.983424 0.780234 -1.377181
 H 5.477797 -0.836414 -1.889055
 H 7.028055 -0.618686 -1.055848
 H 4.850882 -2.569300 -0.118680
 H 4.861398 -2.116647 1.600035
 H 6.389226 -2.299385 0.717706
 H 5.905855 1.260568 1.157974
 H 6.963176 0.031637 1.348382