18
charge = 0
 C 0.985651 -0.097155 0.056676
 C 2.436613 -0.111137 0.051750
 C 3.638400 -0.125902 0.031130
 C 5.091641 -0.127675 0.019499
 C 5.716791 0.654604 -1.140632
 C 7.221795 0.784311 -0.934132
 N 5.339821 0.032862 -2.399634
 H 0.593205 0.010542 -0.957873
 H 0.598991 0.731706 0.655352
 H 0.584536 -1.024968 0.472974
 H 5.458975 -1.162035 -0.020592
 H 5.461779 0.286790 0.963385
 H 5.273232 1.656418 -1.137529
 H 7.691871 -0.204123 -0.896560
 H 7.461586 1.307414 -0.003751
 H 7.677340 1.339390 -1.757985
 H 5.739791 -0.897359 -2.464652
 H 5.703271 0.564917 -3.180824