16
charge = 0
 C 1.634018 1.259770 -0.755572
 C 2.346730 0.062221 -0.131891
 C 3.032003 -0.773133 -1.154914
 C 4.331214 -1.093129 -1.215087
 C 5.409665 -0.691623 -0.254032
 C 4.766745 -1.912599 -2.304912
 N 5.152015 -2.571092 -3.169062
 H 1.093775 1.827385 0.004609
 H 0.912222 0.939513 -1.510816
 H 2.346162 1.931343 -1.239663
 H 1.604493 -0.564694 0.377803
 H 3.043756 0.400546 0.636646
 H 2.393357 -1.155423 -1.948161
 H 5.030780 -0.038111 0.529273
 H 6.215020 -0.172383 -0.779374
 H 5.850825 -1.574280 0.216244