20
charge = 0
 C 0.806582 -0.218130 -0.725376
 C 2.271501 -0.453683 -0.414940
 C 3.040321 0.721240 0.119786
 C 2.481619 1.896917 0.389236
 C 4.518977 0.454998 0.319252
 C 5.255487 1.512616 1.128689
 N 5.118897 0.199085 -0.991758
 H 0.346644 -1.131527 -1.108471
 H 0.678556 0.559780 -1.482369
 H 0.246885 0.085621 0.163058
 H 2.797639 -0.811944 -1.305752
 H 2.364626 -1.270470 0.313884
 H 1.425136 2.073145 0.227600
 H 3.052865 2.727480 0.784614
 H 4.588730 -0.493910 0.869249
 H 5.259870 2.475931 0.610946
 H 4.809232 1.656586 2.115865
 H 6.296302 1.210024 1.269994
 H 6.086475 -0.081485 -0.884530
 H 5.117236 1.055344 -1.535857