16
charge = 0
 C 1.139914 -1.249366 -0.589342
 C 1.785332 0.049217 -0.118516
 C 2.697476 0.653405 -1.150828
 C 2.526540 1.810394 -1.804076
 C 1.402969 2.770395 -1.657994
 C 3.861452 -0.120834 -1.459231
 N 4.787621 -0.771145 -1.679256
 H 0.516092 -1.675949 0.198624
 H 1.896855 -1.989803 -0.857071
 H 0.512130 -1.079069 -1.466803
 H 2.370137 -0.144524 0.786814
 H 1.017342 0.773261 0.156315
 H 3.291835 2.087260 -2.524368
 H 1.779889 3.748003 -1.340663
 H 0.646922 2.447845 -0.943980
 H 0.915284 2.927999 -2.625127