22
charge = 0
 C 2.939566 0.890254 1.154211
 C 2.529937 -0.013232 0.000313
 C 3.031962 0.387274 -1.397140
 C 2.563981 -0.669082 -2.394250
 C 2.469834 1.746088 -1.803620
 C 4.563931 0.476605 -1.427339
 N 5.210010 -0.756816 -1.004372
 H 2.540052 0.510208 2.097518
 H 2.564734 1.908726 1.030284
 H 4.025970 0.953175 1.264779
 H 1.435772 -0.066031 -0.040260
 H 2.864300 -1.036803 0.202477
 H 1.475885 -0.777654 -2.363730
 H 3.017788 -1.636227 -2.170932
 H 2.843278 -0.392866 -3.415473
 H 1.376402 1.735305 -1.789264
 H 2.785375 2.006856 -2.818046
 H 2.807249 2.545771 -1.139413
 H 4.877314 1.355258 -0.842328
 H 4.867144 0.673726 -2.460966
 H 5.173524 -0.857669 0.002185
 H 6.187895 -0.752357 -1.262024