14
charge = 0
 C 0.962482 -0.055960 0.046227
 C 2.476089 0.035435 0.043129
 C 3.012236 1.133453 0.985564
 C 4.469826 1.133369 1.054211
 C 5.666693 1.102310 1.102480
 C 2.511755 2.453176 0.590210
 N 2.090667 3.472630 0.268399
 H 0.628091 -0.849090 -0.624668
 H 0.505384 0.878504 -0.286666
 H 0.579385 -0.281897 1.045038
 H 2.852753 0.234408 -0.962866
 H 2.923014 -0.906269 0.370338
 H 2.619551 0.942181 1.993181
 H 6.730272 1.083351 1.146623