14
charge = 0
 C 0.939845 -0.149250 -0.067909
 C 2.464532 -0.073942 -0.047461
 C 2.976038 0.861653 0.940987
 C 3.380272 1.633679 1.767082
 C 3.875343 2.573136 2.763472
 C 4.272500 1.927945 4.013157
 N 4.589136 1.437854 5.002420
 H 0.606048 -0.864247 -0.822302
 H 0.505283 0.824084 -0.301322
 H 0.553936 -0.467461 0.901750
 H 2.838561 0.215933 -1.035003
 H 2.884943 -1.063742 0.158939
 H 3.110754 3.321940 2.997886
 H 4.740708 3.122417 2.376515