16
charge = 0
 C 1.235066 -0.174027 0.178734
 C 2.747175 -0.090878 0.291801
 C 3.362371 0.764373 -0.812698
 C 4.855649 0.888113 -0.708364
 C 5.718234 0.430860 -1.615412
 C 5.355607 1.539590 0.465887
 N 5.721647 2.071565 1.420110
 H 0.813673 -0.792143 0.973989
 H 0.931017 -0.609937 -0.777055
 H 0.778367 0.816772 0.251055
 H 3.182716 -1.094449 0.249124
 H 3.024646 0.324245 1.265961
 H 2.920253 1.766908 -0.776394
 H 3.120432 0.343950 -1.793004
 H 5.361440 -0.063333 -2.511623
 H 6.787905 0.539692 -1.488812