18
charge = 0
 C 1.042651 0.081459 -0.046232
 C 2.561127 0.077541 -0.001354
 C 3.141736 -1.324260 -0.082811
 C 4.672381 -1.377253 -0.028030
 C 5.203010 -2.810298 -0.005603
 C 5.255769 -0.641617 -1.147775
 N 5.709596 -0.075239 -2.040151
 H 0.646382 1.097056 0.015354
 H 0.618775 -0.491413 0.783470
 H 0.674994 -0.361713 -0.975706
 H 2.904249 0.557011 0.922848
 H 2.956738 0.681782 -0.824223
 H 2.805290 -1.814759 -1.002973
 H 2.764881 -1.930326 0.748602
 H 5.003210 -0.862907 0.882692
 H 4.890542 -3.350574 -0.901315
 H 4.808386 -3.333824 0.867195
 H 6.292494 -2.830145 0.041612