14
charge = 0
 C 0.872661 -0.028404 0.009032
 C 2.390269 -0.048284 0.011647
 C 2.973783 1.002621 -0.938117
 C 4.420030 1.009794 -0.959251
 C 5.626015 0.996735 -0.959696
 C 6.992593 0.985689 -0.963695
 N 8.148066 0.976131 -0.966728
 H 0.471734 -0.781561 0.689766
 H 0.473841 -0.235801 -0.987611
 H 0.487038 0.944359 0.325885
 H 2.757813 -1.034703 -0.283696
 H 2.770905 0.136115 1.019840
 H 2.622008 2.000693 -0.651801
 H 2.608753 0.828408 -1.957074