18
charge = 0
 C 0.954992 -0.018678 0.046676
 C 2.473606 0.017545 0.056380
 C 3.034057 1.251771 0.745465
 C 4.552760 1.289436 0.755646
 C 5.091013 2.538773 1.453702
 C 6.544076 2.591160 1.472136
 N 7.693603 2.614977 1.477095
 H 0.580431 -0.914452 -0.453276
 H 0.542192 0.849316 -0.474900
 H 0.552955 -0.013882 1.063635
 H 2.849499 -0.022166 -0.972334
 H 2.860200 -0.879163 0.553953
 H 2.660259 1.292610 1.776342
 H 2.649230 2.150929 0.247946
 H 4.935511 1.259627 -0.269009
 H 4.946568 0.401148 1.258818
 H 4.735155 2.581940 2.488032
 H 4.723692 3.442408 0.956892