22
charge = 0
 C 1.286035 -0.617096 -0.106695
 C 2.590723 0.031366 0.326683
 C 3.011915 1.231114 -0.519642
 C 2.093914 2.429242 -0.322854
 C 4.455393 1.628808 -0.231247
 N 5.398670 0.594867 -0.600315
 C 6.770057 0.943321 -0.306633
 H 1.056686 -1.488339 0.511385
 H 1.343540 -0.957152 -1.145138
 H 0.437432 0.067211 -0.030496
 H 3.396492 -0.706695 0.292586
 H 2.513278 0.355277 1.372656
 H 2.958941 0.932881 -1.578083
 H 2.130213 2.775711 0.715222
 H 1.055207 2.186738 -0.554477
 H 2.387881 3.265628 -0.962399
 H 4.565769 1.815404 0.845347
 H 4.673497 2.590474 -0.732005
 H 5.301340 0.391963 -1.587991
 H 6.904657 1.018150 0.776239
 H 7.093991 1.902149 -0.746365
 H 7.438379 0.158887 -0.667677