22
charge = 0
 C -0.068680 0.315344 -0.269116
 C 1.432364 0.406336 -0.052376
 C 1.992019 1.768020 0.385418
 C 1.334694 2.221498 1.692416
 C 1.756764 2.812081 -0.700590
 N 3.436466 1.551304 0.526833
 C 4.256926 2.671421 0.932699
 H -0.342173 -0.692704 -0.589263
 H -0.414268 1.003265 -1.044257
 H -0.631174 0.528586 0.642661
 H 1.960041 0.120997 -0.967615
 H 1.723128 -0.330841 0.707609
 H 1.457672 1.462002 2.470884
 H 0.265340 2.402860 1.564414
 H 1.776917 3.152099 2.054831
 H 0.690482 2.932134 -0.898542
 H 2.254597 2.515413 -1.626717
 H 2.140289 3.790578 -0.403349
 H 3.583933 0.776040 1.161652
 H 4.282284 3.429863 0.147329
 H 5.282125 2.320110 1.066973
 H 3.951152 3.166995 1.867403