22
charge = 0
 C 0.916972 1.009464 2.192677
 C 2.418125 1.232569 2.111063
 C 3.147870 0.037845 1.513528
 C 4.672826 0.125170 1.503678
 C 5.178283 1.328512 0.721468
 N 5.166008 0.153951 2.873179
 C 6.593659 -0.036599 3.006051
 H 0.404990 1.878557 2.612454
 H 0.678441 0.148235 2.823765
 H 0.489013 0.818746 1.203901
 H 2.821759 1.441388 3.105825
 H 2.616886 2.124564 1.508550
 H 2.805841 -0.121650 0.484422
 H 2.859503 -0.867640 2.065184
 H 5.040998 -0.780151 0.982542
 H 4.927049 2.258941 1.234958
 H 4.731969 1.347763 -0.275870
 H 6.261957 1.296745 0.593165
 H 4.685351 -0.563384 3.402118
 H 7.132836 0.846740 2.656960
 H 6.979840 -0.906206 2.446250
 H 6.845625 -0.171167 4.059731