17
charge = 0
 C 1.025612 -0.313420 -0.133182
 C 2.493068 -0.070390 -0.125484
 C 3.169347 0.956368 -0.663822
 C 2.556547 2.101727 -1.403346
 C 4.617156 0.967682 -0.523112
 N 5.333347 1.902870 -1.008781
 N 6.669111 1.875348 -0.773170
 H 0.638391 -0.377469 0.889503
 H 0.794181 -1.272189 -0.609786
 H 0.465956 0.462349 -0.654343
 H 3.083408 -0.829146 0.386584
 H 1.472663 2.023947 -1.463834
 H 2.961376 2.159266 -2.416822
 H 2.815022 3.046410 -0.918791
 H 5.072317 0.133389 0.028100
 H 7.169978 2.374786 -1.490536
 H 7.062011 0.954383 -0.597967