17
charge = 0
 C 0.852895 -0.147614 0.098755
 C 2.332600 -0.011388 0.180993
 C 3.040734 0.866127 0.896993
 C 2.457170 1.906176 1.805472
 C 4.530563 0.814436 0.804476
 N 5.193818 1.033101 1.989375
 N 5.209956 0.643429 -0.261967
 H 0.518026 -0.062088 -0.940155
 H 0.316480 0.594832 0.688455
 H 0.539832 -1.139129 0.441789
 H 2.897782 -0.728833 -0.410458
 H 1.385653 2.026063 1.652263
 H 2.939086 2.873207 1.643609
 H 2.608330 1.655458 2.860690
 H 4.748454 0.728820 2.837989
 H 6.184938 0.856889 1.938815
 H 4.592192 0.615605 -1.066993