17
charge = 0
 C 1.040508 0.643042 -2.037466
 C 2.513958 0.847105 -2.020332
 C 3.319958 0.459516 -1.031210
 C 4.771569 0.637230 -0.968337
 C 5.511126 0.130212 0.234011
 N 5.371382 1.221033 -1.942043
 N 6.690768 1.385869 -1.891644
 H 0.509135 1.597939 -2.115314
 H 0.693031 0.133640 -1.135922
 H 0.732919 0.048354 -2.904636
 H 2.957743 1.347981 -2.877484
 H 2.878690 -0.042186 -0.171843
 H 4.834403 -0.333339 0.950430
 H 6.037328 0.942298 0.750924
 H 6.262784 -0.618297 -0.045838
 H 7.111728 1.845857 -2.672885
 H 7.257371 1.074157 -1.120220