17
charge = 0
 C 3.067719 -0.371447 -1.245477
 C 2.318047 -0.252161 0.046511
 C 1.021070 0.073312 0.052904
 C 3.082210 -0.494099 1.277692
 C 2.441219 -0.491302 2.631078
 N 4.338576 -0.716162 1.128144
 N 5.084711 -0.980211 2.225477
 H 2.403681 -0.189169 -2.090901
 H 3.512864 -1.363481 -1.346780
 H 3.895337 0.340046 -1.282435
 H 0.494878 0.250304 -0.877563
 H 0.441728 0.182852 0.960304
 H 1.357251 -0.443074 2.580873
 H 2.780392 0.361289 3.232352
 H 2.713061 -1.402493 3.173837
 H 6.063081 -0.843593 2.029837
 H 4.796564 -0.539613 3.092145