19
charge = 0
 C 1.076964 -0.028098 -0.072070
 C 2.605187 0.060521 -0.002012
 C 3.027098 0.691019 1.317776
 C 3.190575 -1.351069 -0.115752
 C 3.087173 0.869249 -1.175059
 N 3.758546 1.938240 -1.047039
 N 4.153373 2.605412 -2.131569
 H 0.692451 -0.665385 0.729371
 H 0.748467 -0.454861 -1.024403
 H 0.623635 0.960892 0.029550
 H 2.664916 0.084916 2.152762
 H 2.622104 1.699473 1.418689
 H 4.113688 0.765773 1.387918
 H 2.809177 -1.990317 0.685614
 H 4.280783 -1.328244 -0.046018
 H 2.921977 -1.815314 -1.069328
 H 2.824813 0.482871 -2.171672
 H 4.680310 3.440888 -1.983942
 H 3.936950 2.288442 -3.064226