19
charge = 0
 C 0.990930 -0.457422 0.178319
 C 2.415465 -0.132987 -0.246327
 C 2.769036 -0.821225 -1.556909
 C 2.636257 1.379596 -0.370092
 C 2.384892 2.153960 0.899719
 N 3.307529 1.941838 1.890184
 N 1.434506 2.979162 1.100941
 H 0.852591 -1.535599 0.289991
 H 0.277264 -0.107014 -0.574381
 H 0.731620 0.019737 1.125808
 H 3.095525 -0.519514 0.524820
 H 2.119624 -0.470733 -2.365293
 H 2.644115 -1.904010 -1.479077
 H 3.802934 -0.621470 -1.850275
 H 1.973074 1.771558 -1.146701
 H 3.664109 1.567056 -0.700600
 H 3.849971 1.097457 1.875958
 H 3.062669 2.300508 2.798232
 H 0.867288 3.072280 0.264795