15
charge = 0
 C 1.153027 -0.292625 0.026870
 C 2.640728 0.082410 -0.058405
 C 2.968805 0.562468 -1.390849
 C 3.215502 0.960346 -2.495964
 C 3.016616 1.103887 1.017040
 N 3.055234 0.570712 2.279976
 N 3.302036 2.325068 0.831031
 H 0.904557 -1.025202 -0.741600
 H 0.532378 0.591552 -0.124668
 H 0.906584 -0.724239 0.998948
 H 3.238259 -0.818495 0.129930
 H 3.443636 1.308268 -3.475798
 H 2.515850 -0.253195 2.476056
 H 3.105843 1.247191 3.024190
 H 3.301145 2.542152 -0.161958