17
charge = 0
 C 1.248275 0.043636 0.365370
 C 2.446594 -0.285581 -0.461112
 C 3.778230 0.261848 -0.002573
 C 4.469950 -0.670368 0.945393
 C 4.789991 -0.377907 2.198073
 N 2.281212 -1.010232 -1.495004
 N 3.358893 -1.295505 -2.291547
 H 1.392627 -0.276345 1.402531
 H 0.365207 -0.448808 -0.039529
 H 1.074669 1.125039 0.386484
 H 3.619526 1.223495 0.492751
 H 4.410097 0.452765 -0.878337
 H 4.695653 -1.666356 0.567384
 H 4.577303 0.598099 2.623578
 H 5.277859 -1.100375 2.841905
 H 3.134790 -2.084665 -2.877054
 H 4.234925 -1.448830 -1.805113