15
charge = 0
 C 0.958755 -0.035556 -0.034840
 C 2.409448 -0.070938 -0.053851
 C 3.611579 -0.090370 -0.066894
 C 5.068095 -0.133429 -0.095857
 C 5.597354 -0.988535 -1.206891
 N 6.450995 -0.526718 -2.018979
 N 6.970581 -1.356796 -2.962488
 H 0.562685 0.378083 -0.965696
 H 0.593488 0.583432 0.788574
 H 0.542019 -1.038076 0.091094
 H 5.431203 -0.517750 0.866643
 H 5.482775 0.871389 -0.212810
 H 5.221263 -2.016671 -1.278389
 H 7.277832 -0.828999 -3.763883
 H 6.376228 -2.138556 -3.224144