17
charge = 0
 C 2.915706 -0.744687 1.775132
 C 3.360174 -0.016728 0.509850
 C 3.164082 -0.831690 -0.722109
 C 4.131529 -1.193485 -1.568617
 C 3.908430 -1.990003 -2.750426
 N 4.874463 -2.298866 -3.525157
 N 4.617101 -3.104952 -4.580511
 H 3.038647 -0.111327 2.656713
 H 3.498839 -1.655905 1.925900
 H 1.862352 -1.031186 1.714517
 H 4.412029 0.272630 0.592729
 H 2.786791 0.915008 0.420870
 H 2.144191 -1.160358 -0.924666
 H 5.160146 -0.887918 -1.392663
 H 2.882900 -2.324772 -2.958326
 H 5.296748 -2.974668 -5.312199
 H 3.660872 -3.095294 -4.924137