17
charge = 0
 C 1.906537 0.471350 0.634066
 C 3.329165 0.087886 0.238613
 C 3.369696 -1.074100 -0.693900
 C 4.012457 -2.216778 -0.463374
 C 4.082506 -3.366639 -1.382484
 N 3.168274 -3.392832 -2.409778
 N 4.960787 -4.291699 -1.303572
 H 1.905277 1.346863 1.286749
 H 1.413199 -0.347068 1.163234
 H 1.303614 0.711135 -0.245728
 H 3.922395 -0.134496 1.130204
 H 3.804480 0.948103 -0.248841
 H 2.836948 -0.948431 -1.635626
 H 4.574997 -2.337593 0.459355
 H 2.251049 -3.032303 -2.208562
 H 3.175305 -4.258210 -2.926612
 H 5.610205 -4.096607 -0.547245