15
charge = 0
 C 0.925752 0.018121 0.165567
 C 2.395163 -0.185879 -0.194293
 C 2.919712 0.845656 -1.072112
 C 3.347720 1.707809 -1.796409
 C 3.901337 2.707463 -2.673080
 N 3.043114 3.722619 -3.003647
 N 5.103319 2.706220 -3.104276
 H 0.583510 -0.779666 0.827430
 H 0.301833 0.012089 -0.729681
 H 0.779173 0.972554 0.673652
 H 2.531664 -1.159908 -0.676581
 H 3.003669 -0.211265 0.716255
 H 2.056864 3.543827 -2.945192
 H 3.353857 4.316440 -3.755338
 H 5.614023 1.919310 -2.719006