18
charge = 0
 C 1.086262 -0.702566 -0.694735
 C 2.575393 -0.639714 -0.564006
 C 3.395850 -0.808181 -1.594171
 C 3.068207 -0.361380 0.826413
 N 4.504661 -0.397742 0.961950
 C 5.000329 -0.603443 2.304924
 C 5.074045 -1.685456 1.299106
 H 0.784877 -0.876599 -1.728093
 H 0.621954 0.229823 -0.355404
 H 0.668552 -1.503819 -0.075744
 H 3.009239 -1.003391 -2.588428
 H 4.469469 -0.742264 -1.470665
 H 2.575626 -1.070464 1.520007
 H 2.723558 0.636745 1.127670
 H 4.269113 -0.718346 3.102240
 H 5.887522 -0.040755 2.574397
 H 4.389052 -2.521868 1.417207
 H 6.016781 -1.928967 0.821531