18
charge = 0
 C 0.863706 -0.190449 0.100397
 C 2.359646 0.004093 -0.097518
 C 3.107669 -1.272584 0.127167
 C 3.966882 -1.480661 1.113714
 N 2.600697 0.460201 -1.461115
 C 2.494381 1.887304 -1.678306
 C 3.813998 1.217228 -1.673828
 H 0.648955 -0.510778 1.121296
 H 0.486385 -0.947457 -0.590680
 H 0.327405 0.741948 -0.092388
 H 2.722765 0.751369 0.631336
 H 2.897830 -2.062541 -0.591346
 H 4.196497 -0.704394 1.837717
 H 4.468994 -2.433016 1.239431
 H 2.257480 2.513489 -0.820597
 H 2.033795 2.195110 -2.610843
 H 4.456099 1.391873 -0.813699
 H 4.337135 1.025055 -2.604139