20
charge = 0
 C 1.334720 -0.883448 -0.263541
 C 2.602304 -0.264902 0.327995
 C 3.306214 -1.295278 1.203114
 C 2.228311 0.958855 1.155861
 N 3.602064 0.192786 -0.647360
 C 3.850355 -0.535740 -1.866543
 C 3.210873 0.802467 -1.893965
 H 1.548070 -1.777385 -0.853911
 H 0.783173 -0.177186 -0.888184
 H 0.668602 -1.184455 0.547889
 H 3.602366 -2.166241 0.612307
 H 2.649554 -1.637772 2.006380
 H 4.205860 -0.862825 1.644791
 H 1.536908 0.689838 1.957933
 H 1.745601 1.715188 0.531135
 H 3.122512 1.403093 1.596920
 H 3.216358 -1.381589 -2.118265
 H 4.894036 -0.655246 -2.139239
 H 2.158675 0.831677 -2.163747
 H 3.778134 1.680043 -2.187159