16
charge = 0
 C 1.052316 -0.025501 0.006076
 C 2.575873 -0.025077 -0.004542
 C 3.107446 -0.648718 1.211882
 C 3.546216 -1.173950 2.199424
 N 3.042008 -0.614173 -1.257752
 C 4.392093 -1.125761 -1.338026
 C 3.233937 -2.048052 -1.322773
 H 0.671675 0.484993 0.891734
 H 0.673562 -1.049408 0.009864
 H 0.685623 0.479703 -0.888378
 H 2.923779 1.014683 -0.015217
 H 3.930474 -1.630785 3.080916
 H 5.000950 -1.102548 -0.438223
 H 4.914943 -0.910648 -2.263591
 H 3.089783 -2.623603 -0.412257
 H 2.892323 -2.521854 -2.236435