22
charge = 0
 C 0.253546 0.267787 -0.193291
 C 1.752020 0.293098 0.056733
 C 2.490381 1.251508 -0.863779
 C 3.986109 1.285957 -0.616218
 N 4.657912 2.182190 -1.532699
 C 6.082258 2.294297 -1.298871
 C 6.715905 3.293673 -2.243697
 H -0.254371 -0.427862 0.478668
 H 0.030615 -0.038137 -1.219255
 H -0.187879 1.257053 -0.042578
 H 2.161795 -0.715611 -0.070203
 H 1.945464 0.568749 1.099871
 H 2.079685 2.261971 -0.735630
 H 2.312918 0.978982 -1.909710
 H 4.402044 0.281447 -0.761902
 H 4.176415 1.544888 0.442639
 H 4.234494 3.102090 -1.475933
 H 6.526131 1.304764 -1.457206
 H 6.315474 2.571010 -0.254160
 H 6.532641 3.010535 -3.282211
 H 7.794562 3.353018 -2.083722
 H 6.303890 4.295782 -2.090135