18
charge = 0
 C 0.812563 -1.362107 -0.116779
 C 2.115254 -0.876863 -0.653886
 C 3.293601 -1.454200 -0.450254
 C 4.606423 -0.941254 -0.979206
 N 5.539087 -0.552783 0.070220
 C 5.221308 -1.948095 -1.909399
 C 6.474562 -2.376737 -1.866301
 H 0.332225 -0.599699 0.504926
 H 0.939646 -2.263552 0.485714
 H 0.112746 -1.589925 -0.927223
 H 2.081196 0.025990 -1.263908
 H 3.352589 -2.360392 0.154134
 H 4.391629 -0.040970 -1.571971
 H 5.773721 -1.361731 0.636289
 H 5.092001 0.114748 0.686675
 H 4.542271 -2.339762 -2.662909
 H 7.180263 -1.988913 -1.140659
 H 6.837505 -3.112335 -2.574664