20
charge = 0
 C 1.174254 -0.801459 0.535401
 C 2.430842 -0.034253 0.306034
 C 2.713474 0.662248 -0.787934
 C 3.995425 1.388992 -1.028942
 N 3.791597 2.773688 -1.413016
 C 3.241810 3.561818 -0.335245
 C 5.004344 3.364487 -1.924372
 H 1.384397 -1.864711 0.690513
 H 0.490533 -0.710307 -0.310728
 H 0.656121 -0.452147 1.434287
 H 3.168906 -0.062062 1.107404
 H 1.986182 0.714112 -1.597078
 H 4.526883 0.902735 -1.856124
 H 4.647354 1.298992 -0.138243
 H 2.313447 3.113097 0.021437
 H 3.021835 4.571070 -0.690755
 H 3.932529 3.644835 0.525095
 H 5.371303 2.787779 -2.776690
 H 5.812334 3.412519 -1.170401
 H 4.805131 4.383364 -2.264834