16
charge = 0
 C 0.915434 0.244407 0.201197
 C 2.371404 -0.047771 0.010711
 C 2.901618 -1.230241 0.298451
 C 3.189620 1.117654 -0.529977
 N 3.246838 2.276624 0.364169
 C 4.549109 0.740640 -0.906200
 C 5.669645 0.440346 -1.211877
 H 0.378820 -0.640340 0.544146
 H 0.457929 0.580371 -0.735836
 H 0.751621 1.037609 0.937389
 H 2.291193 -2.032907 0.697881
 H 3.954055 -1.431699 0.138534
 H 2.691042 1.464357 -1.446069
 H 3.646942 1.998233 1.252907
 H 2.313592 2.624733 0.544327
 H 6.664548 0.182184 -1.488051