16
charge = 0
 C 0.897058 -0.152910 -0.016876
 C 2.418798 -0.087268 0.049109
 C 2.900406 1.322653 0.441835
 C 2.480543 2.344945 -0.502900
 N 2.144626 3.138005 -1.264762
 C 2.962067 -1.081107 1.028120
 C 3.801683 -2.061365 0.729689
 H 0.501462 0.581182 -0.722301
 H 0.455951 0.047822 0.964146
 H 0.571003 -1.144826 -0.333495
 H 2.828883 -0.315281 -0.940174
 H 3.991549 1.342262 0.507762
 H 2.513805 1.588844 1.431446
 H 2.615057 -0.969989 2.055508
 H 4.165765 -2.207216 -0.282831
 H 4.152732 -2.756849 1.483003