14
charge = 0
 C 1.045864 -0.010613 -0.090316
 C 2.571816 0.046965 -0.043842
 C 3.039306 1.498572 0.175580
 C 4.479474 1.664493 0.070168
 N 5.616329 1.798085 -0.032341
 C 3.104712 -0.834677 0.986034
 C 3.530239 -1.551264 1.849048
 H 0.664180 0.615995 -0.899657
 H 0.617478 0.337816 0.851897
 H 0.707820 -1.033576 -0.256386
 H 2.965938 -0.286835 -1.010401
 H 2.717245 1.844268 1.161847
 H 2.566384 2.145518 -0.569092
 H 3.919616 -2.188146 2.607960