16
charge = 0
 C 0.950744 -0.063733 -0.081518
 C 2.401484 -0.048836 -0.082933
 C 3.605285 -0.043417 -0.078654
 C 5.073858 -0.006006 -0.093811
 N 5.629688 0.852781 -1.142832
 C 5.592667 0.435071 1.247085
 C 6.318747 -0.321190 2.053442
 H 0.548292 0.694710 -0.757881
 H 0.558256 0.136898 0.918627
 H 0.568446 -1.035938 -0.402649
 H 5.442677 -1.020943 -0.278550
 H 5.308841 1.804216 -0.996180
 H 5.252527 0.566562 -2.039687
 H 5.322566 1.447727 1.540260
 H 6.592969 -1.336188 1.783784
 H 6.665672 0.044374 3.012787