22
charge = 0
 C 2.993243 -0.329534 1.360785
 C 2.473296 -0.161523 -0.056303
 C 2.957430 1.094914 -0.792872
 C 2.411932 1.068337 -2.222215
 N 2.468000 2.260481 -0.051475
 C 4.487071 1.209875 -0.803249
 C 5.243994 0.054803 -1.436512
 H 2.496110 -1.166199 1.857358
 H 2.814150 0.573609 1.946622
 H 4.066823 -0.532742 1.378158
 H 1.376769 -0.124186 -0.037417
 H 2.726185 -1.041112 -0.656796
 H 1.317920 1.053827 -2.209175
 H 2.745071 0.189077 -2.779834
 H 2.729178 1.959462 -2.772413
 H 1.455301 2.300128 -0.097005
 H 2.811206 3.112682 -0.481172
 H 4.819139 1.350915 0.228944
 H 4.745488 2.137590 -1.329797
 H 5.050524 -0.889617 -0.921767
 H 6.320602 0.234114 -1.390194
 H 4.983159 -0.080512 -2.488562