20
charge = 0
 C 2.836311 -0.167163 -1.436929
 C 2.423232 0.044222 0.008048
 C 2.958662 -1.002533 1.003123
 C 2.456691 -0.638633 2.407350
 N 2.499364 -2.319737 0.579015
 C 4.463435 -0.961978 1.021248
 C 5.280820 -1.910483 0.588133
 H 2.386334 0.592951 -2.079973
 H 2.523361 -1.149597 -1.793291
 H 3.920631 -0.107458 -1.550647
 H 1.328315 0.040743 0.086379
 H 2.744854 1.033556 0.350262
 H 1.362905 -0.629938 2.426314
 H 2.807291 0.349537 2.719201
 H 2.807726 -1.368393 3.141722
 H 1.486182 -2.334221 0.552592
 H 2.787171 -3.019944 1.253470
 H 4.882624 -0.050323 1.443769
 H 4.899142 -2.821926 0.142335
 H 6.356562 -1.793393 0.651669