18
charge = 0
 C 2.885049 1.272885 -0.820239
 C 2.436097 0.024280 -0.086455
 C 2.962492 -1.297439 -0.676647
 C 2.506534 -2.464119 0.211756
 N 2.477201 -1.413883 -2.054599
 C 4.428666 -1.288216 -0.709591
 C 5.628957 -1.310385 -0.712691
 H 2.431552 2.162306 -0.376937
 H 2.602532 1.226583 -1.872676
 H 3.970109 1.386269 -0.769523
 H 1.341202 -0.042745 -0.092807
 H 2.737335 0.071088 0.964134
 H 1.413800 -2.480316 0.261123
 H 2.896535 -2.369028 1.227467
 H 2.850869 -3.414968 -0.199929
 H 1.474720 -1.568336 -2.041175
 H 2.900102 -2.216009 -2.505981
 H 6.693160 -1.322065 -0.721819