19
charge = 0
 C 0.979647 0.260743 0.747776
 C 2.413376 0.151449 0.349892
 C 2.917747 -0.414519 -0.745935
 C 2.089658 -1.060104 -1.820388
 N 2.003206 -0.185165 -2.988261
 C 4.395825 -0.437110 -1.027245
 N 5.171777 0.419542 -0.147683
 H 0.705572 1.307315 0.916758
 H 0.799518 -0.259481 1.694562
 H 0.291522 -0.147554 0.006815
 H 3.130706 0.577043 1.047903
 H 1.113710 -1.361325 -1.419582
 H 2.589938 -1.981474 -2.141950
 H 1.487588 0.653667 -2.751169
 H 1.505162 -0.642708 -3.741898
 H 4.523499 -0.210623 -2.096725
 H 4.752008 -1.467137 -0.891545
 H 4.975207 1.392715 -0.350650
 H 6.160722 0.277826 -0.306474