19
charge = 0
 C 1.663765 0.181139 -1.015767
 C 2.660119 -0.006068 0.078923
 C 3.964519 0.247204 0.029982
 C 4.740188 0.799095 -1.135441
 N 6.094571 0.261675 -1.095674
 C 4.698849 2.334952 -1.136854
 N 5.323027 2.856756 0.069653
 H 0.914701 0.930367 -0.738314
 H 1.117564 -0.748213 -1.205050
 H 2.120997 0.501405 -1.952601
 H 2.260737 -0.402639 1.009965
 H 4.561129 0.040200 0.915164
 H 4.275738 0.458376 -2.066373
 H 6.610165 0.773577 -0.384889
 H 6.563541 0.448095 -1.974382
 H 3.659179 2.667981 -1.277597
 H 5.274033 2.692577 -1.997617
 H 4.711557 2.724175 0.866308
 H 5.497632 3.849146 -0.011125