17
charge = 0
 C 0.809202 0.181218 0.191112
 C 2.259819 -0.178164 0.233599
 C 2.625944 -1.266995 1.190786
 C 3.132792 0.460249 -0.551166
 N 4.497430 0.236407 -0.618823
 C 5.385471 0.898297 -1.430857
 N 5.195152 1.825436 -2.274533
 H 0.454712 0.512259 1.173965
 H 0.195453 -0.683309 -0.086650
 H 0.609289 0.979850 -0.525167
 H 2.083186 -2.188423 0.953420
 H 2.343798 -0.993402 2.213287
 H 3.689240 -1.513038 1.204111
 H 2.776851 1.238115 -1.215747
 H 4.885988 -0.473230 -0.023300
 H 6.404576 0.532452 -1.291328
 H 4.218995 2.105487 -2.341500