19
charge = 0
 C 0.862351 -0.197967 -0.139477
 C 2.369386 -0.010512 -0.243919
 C 2.748329 0.657447 -1.557225
 C 2.922459 0.793418 0.926119
 N 2.750289 0.105733 2.179800
 C 3.053661 0.670084 3.383162
 N 3.390011 1.866997 3.648311
 H 0.490098 -0.824176 -0.953632
 H 0.352759 0.768485 -0.202011
 H 0.571959 -0.662365 0.804839
 H 2.847376 -1.000411 -0.219342
 H 2.312401 1.659158 -1.622517
 H 2.379591 0.081803 -2.409017
 H 3.831666 0.755977 -1.661364
 H 2.395093 1.754726 0.975025
 H 3.983389 1.023144 0.747837
 H 2.710155 -0.898814 2.148628
 H 2.959574 -0.035158 4.212299
 H 3.458964 2.438232 2.807605