17
charge = 0
 C 1.920965 1.243337 0.303255
 C 2.874160 0.072494 0.086869
 C 3.148941 -0.196827 -1.354843
 C 4.359640 -0.140642 -1.906772
 N 4.638125 -0.379321 -3.240192
 C 5.874600 -0.326219 -3.836656
 N 7.012331 -0.059490 -3.345578
 H 1.714453 1.392297 1.365786
 H 0.965797 1.070463 -0.199951
 H 2.342418 2.168823 -0.095706
 H 2.443070 -0.823500 0.550835
 H 3.818515 0.261028 0.607406
 H 2.291077 -0.440838 -1.981156
 H 5.224577 0.104899 -1.300492
 H 3.862534 -0.615432 -3.835819
 H 5.815751 -0.557874 -4.901690
 H 6.976936 0.144602 -2.349075