15
charge = 0
 C 2.526026 0.333625 1.410798
 C 2.577082 0.128327 -0.099990
 C 3.023143 -1.252919 -0.498607
 C 2.187803 -2.270620 -0.798322
 N 0.830414 -2.234916 -0.761182
 C 4.416463 -1.513134 -0.517356
 N 5.559061 -1.684573 -0.523396
 H 2.209320 1.349884 1.657253
 H 3.510492 0.170247 1.854096
 H 1.830190 -0.364996 1.881254
 H 3.258102 0.859255 -0.544502
 H 1.594899 0.337372 -0.538889
 H 2.606512 -3.235105 -1.063999
 H 0.362610 -1.349823 -0.671832
 H 0.321103 -2.947524 -1.250428