19
charge = 0
 C 0.614523 -0.924816 -0.555411
 C 2.051858 -0.720687 -0.107930
 C 2.807255 0.268187 -0.981116
 C 4.244184 0.515808 -0.538655
 N 4.365113 1.153342 0.749663
 C 4.760196 0.521884 1.888659
 N 4.821670 0.964094 3.079146
 H 0.095855 -1.642530 0.083786
 H 0.567650 -1.299242 -1.581927
 H 0.054256 0.013849 -0.522016
 H 2.579439 -1.681960 -0.117104
 H 2.068341 -0.375437 0.930757
 H 2.270210 1.225098 -1.004436
 H 2.825110 -0.091781 -2.016822
 H 4.761369 1.119252 -1.292960
 H 4.782901 -0.434933 -0.481763
 H 4.026447 2.098207 0.837236
 H 5.073504 -0.509636 1.706757
 H 4.507519 1.933300 3.139636