15
charge = 0
 C 1.547609 0.341613 1.111130
 C 2.147068 0.063157 -0.037165
 C 2.926128 -1.187955 -0.313486
 C 4.361424 -0.889640 -0.586624
 N 4.887998 -1.166727 -1.708579
 N 6.234290 -0.800928 -1.758499
 C 6.767308 -1.089368 -2.870200
 H 0.996622 1.263976 1.252860
 H 1.581066 -0.346881 1.950039
 H 2.094881 0.777091 -0.856202
 H 2.516675 -1.714827 -1.179899
 H 2.860751 -1.852559 0.555432
 H 4.955502 -0.410822 0.197350
 H 7.815981 -0.844627 -3.010087
 H 6.207788 -1.569115 -3.675391