17
charge = 0
 C 1.423511 0.222609 -1.177445
 C 2.141990 -0.330691 -0.210534
 C 3.035717 -1.514184 -0.375025
 C 4.490243 -1.177677 -0.068987
 N 5.343503 -2.345336 -0.143160
 N 5.494879 -2.869182 -1.371800
 C 6.509756 -3.589937 -1.619679
 H 0.792589 1.084965 -0.994954
 H 1.437650 -0.173295 -2.188410
 H 2.096373 0.102004 0.788645
 H 2.965352 -1.906837 -1.391601
 H 2.725567 -2.316257 0.304856
 H 4.573480 -0.794984 0.952608
 H 4.831257 -0.381286 -0.745005
 H 6.197476 -2.278794 0.403358
 H 6.587744 -4.039405 -2.601971
 H 7.297813 -3.785903 -0.884587