19
charge = 0
 C 0.949491 0.121194 0.093665
 C 2.468132 0.191080 0.156401
 C 2.965490 1.477290 -0.500844
 C 2.940399 0.129582 1.607896
 N 2.963804 -0.964403 -0.576113
 N 4.261222 -1.171671 -0.693408
 C 4.700069 -2.181310 -1.333903
 H 0.512561 0.965834 0.628290
 H 0.580155 -0.798372 0.556397
 H 0.597970 0.158838 -0.941300
 H 2.617404 2.353805 0.051340
 H 2.604132 1.548051 -1.529712
 H 4.056592 1.490746 -0.520266
 H 2.592319 1.002639 2.165537
 H 4.030808 0.105748 1.646687
 H 2.560906 -0.770386 2.097991
 H 2.307787 -1.610225 -0.997504
 H 5.772127 -2.311470 -1.404310
 H 4.043535 -2.915789 -1.811255