15
charge = 0
 C 1.044103 0.072080 0.133486
 C 2.494212 0.061360 0.104257
 C 3.695791 0.061346 0.079736
 C 5.149649 0.058743 0.051258
 N 5.651830 -1.290345 -0.018250
 N 6.957398 -1.480301 -0.054353
 C 7.432699 -2.660214 -0.115411
 H 0.644757 0.804251 -0.572720
 H 0.671366 0.323636 1.129475
 H 0.642809 -0.907421 -0.138272
 H 5.534325 0.561809 0.948137
 H 5.499988 0.639377 -0.812169
 H 5.000767 -2.063960 -0.037805
 H 8.508856 -2.770168 -0.143108
 H 6.805551 -3.556382 -0.140562