19
charge = 0
 C 2.335286 1.333763 -0.497182
 C 2.660122 -0.091202 -0.059904
 C 2.774240 -0.242766 1.425633
 C 1.550408 -0.065678 2.273527
 N 3.919644 -0.536588 1.906911
 N 4.037478 -0.721867 3.249616
 C 5.400251 -0.639130 3.718831
 H 2.230972 1.394442 -1.582907
 H 3.128828 2.021098 -0.194570
 H 1.399732 1.689055 -0.056766
 H 3.604421 -0.415000 -0.501709
 H 1.877806 -0.766873 -0.429600
 H 0.659450 0.080135 1.663139
 H 1.634431 0.800709 2.941864
 H 1.396365 -0.945749 2.907614
 H 3.392376 -0.173606 3.808977
 H 5.854466 0.350243 3.573381
 H 6.003563 -1.372817 3.183604
 H 5.420660 -0.884467 4.782440