19
charge = 0
 C 1.595327 -0.565618 1.141476
 C 2.954445 -0.106066 0.642186
 C 3.114656 -0.262201 -0.861509
 C 4.471795 0.197117 -1.356977
 N 4.568906 0.027688 -2.780782
 N 5.677311 0.371484 -3.410670
 C 5.770534 0.225313 -4.672676
 H 1.504670 -0.443665 2.223036
 H 1.426451 -1.621262 0.911071
 H 0.788993 0.006543 0.674094
 H 3.743695 -0.671999 1.149527
 H 3.111010 0.943695 0.914359
 H 2.329325 0.309173 -1.372088
 H 2.964938 -1.313979 -1.135823
 H 5.262138 -0.375899 -0.855439
 H 4.624961 1.251206 -1.092461
 H 3.786348 -0.352989 -3.297603
 H 6.696352 0.519283 -5.149543
 H 4.961666 -0.181315 -5.288177