16
charge = 0
 C 1.013638 0.043340 0.117364
 C 2.208837 0.120906 0.044793
 C 3.656011 0.213192 -0.070145
 N 4.277256 -1.098916 -0.142570
 C 5.687255 -1.034523 -0.355744
 C 6.562393 -0.939649 0.856083
 C 6.501903 -2.212631 0.066098
 H -0.045860 -0.025144 0.190763
 H 4.055259 0.732564 0.808064
 H 3.895906 0.850206 -0.939509
 H 3.827369 -1.653403 -0.860673
 H 6.035904 -0.493215 -1.239148
 H 6.059846 -0.931750 1.815122
 H 7.458768 -0.335402 0.797189
 H 5.960871 -3.040976 0.505270
 H 7.355543 -2.487197 -0.540456