15
charge = 0
 C 1.054274 -0.164170 -0.004516
 C 2.582059 -0.083305 0.051623
 C 3.066183 -0.503388 1.362435
 N 3.440124 -0.865575 2.388019
 C 3.225781 -0.897890 -1.056847
 C 4.579874 -1.463574 -0.941987
 N 3.404653 -2.334720 -0.942097
 H 0.598459 0.447751 0.774519
 H 0.717358 -1.194098 0.122322
 H 0.706777 0.193439 -0.975274
 H 2.887217 0.962336 -0.077518
 H 2.882491 -0.580908 -2.038782
 H 5.110025 -1.320329 -0.005593
 H 5.207900 -1.536294 -1.822789
 H 3.210716 -2.647075 0.005784