14
charge = 0
 C 0.964785 -0.498919 0.583428
 C 2.126560 -0.266073 0.396668
 C 3.527743 0.030133 0.147827
 N 4.161344 -1.000731 -0.654056
 C 5.516075 -0.634959 -1.025677
 C 6.099444 -1.594920 -1.948244
 C 6.572689 -2.374521 -2.727398
 H -0.063798 -0.711167 0.756044
 H 4.055365 0.095602 1.107126
 H 3.596701 1.033786 -0.310048
 H 3.610544 -1.183432 -1.483740
 H 6.126552 -0.597359 -0.115282
 H 5.580302 0.370356 -1.480594
 H 6.994904 -3.071907 -3.411663