18
charge = 0
 C 0.914744 -0.074416 0.110715
 C 2.426155 -0.018740 -0.065616
 C 2.836250 -0.801871 -1.312890
 N 2.820981 1.385472 -0.116287
 C 3.084043 -0.631184 1.186985
 C 4.536290 -0.585601 1.167796
 C 5.736047 -0.530850 1.138521
 H 0.414481 0.372937 -0.752841
 H 0.612903 0.481130 1.000737
 H 0.564615 -1.105644 0.199817
 H 2.372379 -0.362913 -2.200511
 H 2.524565 -1.848935 -1.254242
 H 3.920378 -0.777323 -1.445101
 H 2.425512 1.827249 -0.938374
 H 3.830107 1.456666 -0.195944
 H 2.758138 -1.671084 1.292480
 H 2.723671 -0.084336 2.063802
 H 6.799441 -0.490557 1.124854