18
charge = 0
 C 1.115980 -0.283468 -0.199488
 C 2.622756 -0.309206 -0.014147
 C 3.073219 0.023529 1.407716
 N 2.616084 -0.901998 2.434622
 C 4.601361 0.103505 1.511051
 C 5.201461 1.129196 0.677017
 C 5.688607 1.987833 -0.006931
 H 0.842542 -0.501255 -1.234035
 H 0.705243 0.699373 0.049942
 H 0.614616 -1.024542 0.429053
 H 3.089722 0.400828 -0.703955
 H 3.015017 -1.300310 -0.278514
 H 2.675547 1.010685 1.672343
 H 2.879814 -1.852173 2.194497
 H 1.606840 -0.887578 2.505581
 H 5.029174 -0.872056 1.246518
 H 4.860376 0.283112 2.558248
 H 6.125850 2.747626 -0.610148