22
charge = 0
 C 2.512253 2.694243 -0.568038
 C 2.936396 2.430355 -2.002487
 C 3.649439 1.097520 -2.183295
 N 4.876107 0.967694 -1.415121
 C 5.245931 -0.420295 -1.262742
 C 5.956307 1.754730 -1.981306
 C 7.144863 1.919027 -1.052613
 H 2.006414 3.657958 -0.473992
 H 3.376070 2.692380 0.098867
 H 1.823550 1.920814 -0.215275
 H 3.565227 3.251430 -2.361593
 H 2.058921 2.424819 -2.657988
 H 3.833554 0.917772 -3.259979
 H 2.972430 0.303190 -1.851507
 H 4.424257 -0.972425 -0.802074
 H 6.114499 -0.518190 -0.610337
 H 5.488142 -0.907997 -2.226064
 H 5.562037 2.746302 -2.213585
 H 6.292478 1.320993 -2.944107
 H 6.824892 2.325146 -0.090442
 H 7.870341 2.607283 -1.492527
 H 7.664003 0.976651 -0.868186