17
charge = 0
 C 1.275766 0.521727 0.302482
 C 2.677949 0.029238 0.201545
 C 3.055926 -1.206288 0.524889
 N 4.347939 -1.689380 0.441478
 C 4.770470 -2.962280 0.767567
 C 6.244798 -3.182849 0.568174
 N 4.063687 -3.926437 1.202063
 H 1.198428 1.378393 0.980054
 H 0.607139 -0.258205 0.673155
 H 0.895627 0.854230 -0.669063
 H 3.426226 0.733036 -0.159546
 H 2.325073 -1.921282 0.886339
 H 5.050314 -1.050652 0.110441
 H 6.763223 -2.298405 0.193246
 H 6.395198 -4.001669 -0.136060
 H 6.696828 -3.478327 1.515485
 H 3.082111 -3.684458 1.304450