19
charge = 0
 C 1.441378 0.978229 -0.517533
 C 2.718490 1.231114 0.264574
 C 3.728168 0.103036 0.090051
 N 4.970331 0.292124 0.802011
 C 5.889144 1.296529 0.338557
 C 5.151075 -0.267195 2.032375
 N 6.072227 -0.064371 2.887153
 H 0.723861 1.789664 -0.381946
 H 0.957389 0.051546 -0.196306
 H 1.642572 0.890173 -1.588980
 H 2.495398 1.341712 1.330840
 H 3.170584 2.175488 -0.056853
 H 3.948440 -0.030179 -0.976558
 H 3.286387 -0.837250 0.434106
 H 5.699213 1.497930 -0.716283
 H 6.919830 0.942052 0.433187
 H 5.802689 2.241674 0.890250
 H 4.382716 -1.006516 2.271617
 H 6.725618 0.655531 2.584026