17
charge = 0
 C 1.251436 0.511160 -0.206296
 C 2.671349 0.177287 0.098584
 C 3.054001 -0.521317 1.166273
 N 4.353466 -0.854215 1.489561
 C 4.721276 -1.572126 2.589582
 N 5.926890 -1.852644 2.842971
 C 6.199111 -2.614220 4.029754
 H 1.092453 1.593608 -0.254133
 H 0.577723 0.110017 0.554403
 H 0.939942 0.104790 -1.174330
 H 3.428107 0.530552 -0.599108
 H 2.319391 -0.886262 1.879023
 H 5.105081 -0.558122 0.885914
 H 3.875193 -1.876193 3.221384
 H 6.717895 -3.541709 3.767960
 H 5.296952 -2.876646 4.603895
 H 6.870445 -2.053638 4.687762