19
charge = 0
 C 1.430066 -0.139196 -0.449005
 C 2.738937 0.244789 0.231102
 C 2.611385 1.542543 1.007023
 N 3.247132 -0.825108 1.089400
 C 3.906416 -1.942078 0.469892
 N 2.545254 -1.010103 2.206963
 C 2.627731 -2.092304 2.879196
 H 1.101055 0.649177 -1.130198
 H 0.650541 -0.292397 0.301192
 H 1.535747 -1.060682 -1.027142
 H 3.507059 0.380925 -0.537373
 H 1.863318 1.447014 1.794347
 H 2.310383 2.349185 0.334786
 H 3.562127 1.811594 1.471013
 H 3.215188 -2.772131 0.255775
 H 4.699381 -2.327887 1.118211
 H 4.362788 -1.613245 -0.462779
 H 2.054913 -2.139572 3.797685
 H 3.239579 -2.951322 2.607219