21
charge = 0
 C 1.013270 -0.258070 -0.057578
 C 2.526217 -0.318443 0.062337
 C 3.070337 0.290585 1.353443
 N 2.668974 -0.393077 2.576667
 C 4.591769 0.373479 1.336839
 N 5.083207 1.233051 0.280663
 C 6.526887 1.272740 0.208500
 H 0.672949 -0.685721 -1.003238
 H 0.655664 0.775403 -0.016830
 H 0.515681 -0.813172 0.742984
 H 2.991175 0.199022 -0.781516
 H 2.863833 -1.361996 0.008072
 H 2.686123 1.318279 1.434579
 H 2.961122 -1.364395 2.541825
 H 1.661067 -0.397430 2.668442
 H 5.000497 -0.632282 1.167028
 H 4.929069 0.683110 2.339674
 H 4.726238 2.170396 0.423850
 H 6.905219 0.290023 -0.087137
 H 7.016757 1.543290 1.158954
 H 6.840363 1.988828 -0.553868