19
charge = 0
 C 0.612358 -0.261639 1.032385
 C 2.118365 -0.389123 1.183588
 C 2.867130 0.351850 0.083149
 N 4.307812 0.293867 0.185230
 C 4.981241 -0.939849 -0.110130
 N 4.830331 1.159973 1.052709
 C 6.020124 1.020942 1.496037
 H 0.084701 -0.796753 1.824516
 H 0.272526 -0.668879 0.075532
 H 0.298900 0.785188 1.074306
 H 2.402945 -1.447263 1.174143
 H 2.437781 0.013899 2.149700
 H 2.595128 1.409907 0.100923
 H 2.579264 -0.043780 -0.897277
 H 4.368662 -1.520875 -0.798603
 H 5.171395 -1.542798 0.790975
 H 5.945427 -0.745998 -0.591471
 H 6.383969 1.793556 2.162328
 H 6.687740 0.199087 1.241452