15
charge = 0
 C 0.938726 0.065000 -0.080621
 C 2.458996 0.002508 -0.029267
 C 3.024468 0.178344 -1.379641
 N 3.483275 0.348301 -2.420780
 N 2.962957 0.949058 0.949448
 C 4.334801 1.402818 0.861899
 C 3.215056 2.316455 0.540039
 H 0.540810 -0.688443 -0.761470
 H 0.608336 1.048044 -0.420081
 H 0.545665 -0.109897 0.921053
 H 2.766217 -0.994313 0.306151
 H 4.937239 1.061454 0.024148
 H 4.855673 1.481541 1.809364
 H 3.085050 2.572421 -0.508514
 H 2.902240 3.076219 1.247063