19
charge = 0
 C 0.622378 0.374578 0.074904
 C 2.099345 0.054548 0.180304
 C 2.969868 1.217435 -0.279851
 N 2.787977 1.474646 -1.699793
 N 2.439495 -0.259035 1.558107
 C 2.163964 -1.609991 1.992651
 C 3.554077 -1.159156 1.759627
 H 0.380174 0.688215 -0.940856
 H 0.368838 1.185159 0.762946
 H 0.011365 -0.493525 0.333030
 H 2.321887 -0.813503 -0.472532
 H 4.011614 1.004759 0.004316
 H 2.667770 2.109628 0.276662
 H 3.228224 0.749660 -2.253248
 H 3.221235 2.349581 -1.963110
 H 1.742237 -2.298380 1.263274
 H 1.780944 -1.719708 3.001392
 H 4.055287 -1.550886 0.876667
 H 4.207804 -0.931917 2.594708