17
charge = 0
 C 2.751018 -0.091887 2.132632
 C 3.400783 -0.517159 0.819236
 C 2.667862 0.006078 -0.362810
 N 3.233366 0.755768 -1.217565
 N 2.369375 1.140664 -2.241404
 C 2.939968 1.880033 -3.101897
 C 2.203379 2.403854 -4.276562
 H 3.278189 -0.527073 2.983793
 H 1.708618 -0.416671 2.184090
 H 2.768371 0.994493 2.242606
 H 3.409229 -1.612791 0.761773
 H 4.437282 -0.178347 0.766093
 H 1.611482 -0.257470 -0.485206
 H 3.996345 2.138458 -2.978651
 H 1.168343 2.064275 -4.264569
 H 2.682036 2.075158 -5.204456
 H 2.225934 3.498206 -4.283814