19
charge = 0
 C 1.394403 1.725453 0.209432
 C 2.671849 0.926700 0.019179
 C 2.431293 -0.376622 -0.717655
 N 3.661660 -1.097452 -0.875301
 N 3.661989 -2.270984 -1.498059
 C 4.748640 -2.918315 -1.642127
 C 4.773497 -4.233389 -2.335677
 H 1.586968 2.659344 0.741146
 H 0.657362 1.160566 0.786212
 H 0.939488 1.978139 -0.751923
 H 3.121793 0.709798 0.994914
 H 3.402853 1.524334 -0.537618
 H 1.985187 -0.166407 -1.699087
 H 1.703464 -0.983337 -0.162160
 H 4.523716 -0.713438 -0.512547
 H 5.695768 -2.517686 -1.255576
 H 3.767533 -4.499192 -2.661522
 H 5.148946 -5.025465 -1.678726
 H 5.430509 -4.211564 -3.211915