19
charge = 0
 C 2.630019 0.856186 0.902634
 C 1.967129 0.193721 -0.286523
 N 2.826661 0.241914 -1.453719
 C 2.165292 0.139984 -2.737862
 C 2.726549 1.430606 -2.270332
 C 3.996431 1.996879 -2.835457
 N 3.694368 2.869420 -3.959447
 H 1.993831 0.788015 1.787936
 H 2.819649 1.914346 0.705032
 H 3.585754 0.377452 1.124617
 H 0.992491 0.671420 -0.487642
 H 1.766066 -0.859734 -0.066414
 H 1.082495 0.036437 -2.742634
 H 2.686977 -0.442646 -3.491760
 H 1.994615 2.178079 -1.963679
 H 4.669438 1.158605 -3.069274
 H 4.492439 2.595692 -2.064031
 H 3.291025 2.334827 -4.719592
 H 4.537470 3.301706 -4.314245