20
charge = 0
 C 2.566416 1.538019 0.282947
 C 2.224234 0.174972 -0.284652
 N 2.897726 -0.021480 -1.552125
 C 2.446160 -1.064950 -2.462578
 C 1.329942 -2.016552 -2.134209
 C 2.199938 0.366038 -2.762700
 C 2.960764 1.131160 -3.803728
 H 2.092813 1.683073 1.256821
 H 2.220896 2.334033 -0.381814
 H 3.646485 1.643723 0.400438
 H 1.130246 0.079212 -0.362860
 H 2.563531 -0.607899 0.401930
 H 3.278091 -1.535015 -2.985711
 H 1.658356 -2.782174 -1.425249
 H 0.459642 -1.513907 -1.711264
 H 1.004036 -2.529603 -3.042652
 H 1.163132 0.679570 -2.622356
 H 3.982336 0.754162 -3.877917
 H 3.012420 2.193919 -3.551452
 H 2.484926 1.039490 -4.784091