14
charge = 0
 C 2.566196 -1.193254 0.406163
 C 2.311794 0.007075 -0.099987
 N 3.016935 0.649022 -1.113068
 C 2.695320 1.898141 -1.589461
 C 3.581689 2.228845 -2.573025
 C 4.482824 1.138719 -2.704898
 C 4.112046 0.186380 -1.798027
 H 1.937472 -1.579163 1.195930
 H 3.382217 -1.817243 0.065846
 H 1.483495 0.601177 0.269368
 H 1.857310 2.438459 -1.178686
 H 3.586255 3.148330 -3.136671
 H 5.312219 1.062660 -3.390638
 H 4.536838 -0.779746 -1.584956