17
charge = 0
 C 1.170628 0.265181 0.360461
 C 2.605654 -0.146461 0.102606
 N 2.860995 -1.506965 0.518458
 C 2.219894 -2.573053 -0.251479
 C 3.121347 -3.767814 0.040168
 C 4.387515 -3.036673 0.380236
 N 4.200382 -1.801691 0.632215
 H 1.024330 1.311751 0.085393
 H 0.919558 0.146212 1.416607
 H 0.465916 -0.329024 -0.226348
 H 3.292792 0.485687 0.667084
 H 2.848013 -0.016199 -0.966969
 H 2.240740 -2.324253 -1.326606
 H 1.183385 -2.717953 0.051854
 H 3.217038 -4.460899 -0.796364
 H 2.770369 -4.339497 0.908733
 H 5.370753 -3.474629 0.495060