20
charge = 0
 C 1.312846 -2.691142 -0.297556
 C 2.805491 -2.940556 -0.368833
 N 3.540645 -1.787203 0.114906
 C 4.971085 -1.873099 0.019838
 C 5.669056 -2.966507 0.793351
 C 5.541504 -1.467460 -1.305739
 C 5.670157 -0.555747 -0.118947
 H 0.755187 -3.547680 -0.682743
 H 1.041908 -1.806952 -0.878033
 H 0.991468 -2.526101 0.735389
 H 3.105090 -3.109023 -1.408497
 H 3.043987 -3.868531 0.176830
 H 3.268964 -1.576008 1.068929
 H 5.343390 -3.958938 0.470147
 H 5.463280 -2.876181 1.865090
 H 6.751444 -2.914189 0.657041
 H 4.839052 -1.179757 -2.077509
 H 6.428403 -1.980118 -1.658093
 H 5.048711 0.330359 -0.106337
 H 6.645542 -0.445487 0.339866