19
charge = 0
 C 3.129847 1.153015 0.774265
 C 2.392368 -0.000418 0.098179
 N 2.322202 0.104054 -1.348860
 C 3.037240 -1.314552 0.475185
 C 2.956584 -2.530359 -0.361571
 N 4.175603 -1.741382 -0.310770
 C 5.282897 -2.323330 0.411029
 H 2.661834 2.110017 0.528378
 H 4.169544 1.186288 0.435786
 H 3.127584 1.050735 1.863948
 H 1.362890 -0.025606 0.478978
 H 3.256984 -0.010822 -1.727593
 H 1.985834 1.018398 -1.621904
 H 3.109092 -1.483125 1.549833
 H 2.414279 -2.497340 -1.299054
 H 2.961732 -3.488422 0.153984
 H 5.845858 -2.982962 -0.253855
 H 4.963886 -2.909315 1.287816
 H 5.954254 -1.532183 0.753637