19
charge = 0
 C 0.914929 0.244653 -0.151555
 C 2.365431 0.272213 -0.583882
 N 3.079882 -0.892648 -0.097062
 C 4.453036 -0.938077 -0.521647
 C 5.452840 -0.042542 0.232260
 N 6.400424 -1.170382 0.239449
 C 5.298100 -2.113307 -0.011952
 H 0.388378 1.137530 -0.494887
 H 0.838733 0.192048 0.936335
 H 0.397010 -0.624798 -0.567944
 H 2.855759 1.160795 -0.170882
 H 2.426830 0.369732 -1.682673
 H 2.602544 -1.733425 -0.404640
 H 4.574354 -0.810842 -1.609295
 H 5.050945 0.220084 1.219335
 H 5.821116 0.858032 -0.266275
 H 6.903211 -1.310383 1.105717
 H 4.847575 -2.536588 0.895354
 H 5.534715 -2.918914 -0.712575