19
charge = 0
 C 2.885050 0.755742 1.691576
 C 2.607699 -0.210583 0.545510
 N 1.194311 -0.520793 0.361157
 C 3.164085 0.285836 -0.785815
 C 4.655644 0.458557 -0.813579
 C 5.287434 1.370229 -1.784108
 N 5.289600 1.695158 -0.359294
 H 2.476245 0.367904 2.628493
 H 2.410637 1.724548 1.498857
 H 3.955234 0.923417 1.834876
 H 3.106472 -1.161602 0.772300
 H 0.681553 0.327252 0.141750
 H 0.798816 -0.878159 1.223034
 H 2.686932 1.242089 -1.045460
 H 2.864580 -0.430531 -1.557592
 H 5.218182 -0.428197 -0.527545
 H 4.630177 1.930514 -2.442890
 H 6.259702 1.136592 -2.204023
 H 4.578549 2.392817 -0.164350