14
charge = 0
 C 1.041942 0.044250 0.071179
 C 2.583011 0.022703 0.024210
 N 3.122806 -0.720881 -1.117706
 C 3.071225 1.407339 -0.057000
 C 3.424482 2.549534 -0.145114
 C 3.083175 -0.602558 1.257535
 C 3.446319 -1.138055 2.266761
 H 0.659290 0.511568 -0.838297
 H 0.682829 0.606502 0.934173
 H 0.668179 -0.979443 0.136858
 H 2.783137 -0.303811 -1.976946
 H 2.789905 -1.677602 -1.079206
 H 3.754882 3.558808 -0.216475
 H 3.785428 -1.605155 3.161028