16
charge = 0
 C 0.802961 0.018578 0.058635
 C 2.328969 0.065301 -0.037699
 N 3.013406 -0.691691 1.007852
 C 2.779519 -0.435756 -1.372058
 C 3.343476 0.320556 -2.314115
 C 3.740299 -0.156694 -3.588321
 C 4.088749 -0.529695 -4.678279
 H 0.472809 0.378863 1.037073
 H 0.441269 -1.007007 -0.063088
 H 0.333131 0.636746 -0.710389
 H 2.651873 1.107893 0.059024
 H 2.779127 -1.676116 0.933670
 H 2.693287 -0.387222 1.920279
 H 2.607808 -1.491790 -1.575614
 H 3.523554 1.375436 -2.117376
 H 4.395682 -0.868593 -5.639104