20
charge = 0
 C 1.158600 0.469679 0.079652
 C 2.671020 0.316099 0.192298
 N 3.190934 0.576378 1.530402
 C 3.115689 -1.069806 -0.261076
 C 4.628843 -1.215489 -0.389555
 C 5.049703 -2.613274 -0.693127
 C 5.716676 -2.999821 -1.772196
 H 0.841387 1.465200 0.401786
 H 0.650437 -0.265251 0.712827
 H 0.813024 0.322138 -0.947541
 H 3.142319 1.052674 -0.471183
 H 2.730368 -0.030645 2.200926
 H 2.986052 1.527405 1.812190
 H 2.642401 -1.305451 -1.219666
 H 2.733678 -1.809743 0.455932
 H 5.079810 -0.886101 0.552894
 H 4.998834 -0.542499 -1.170572
 H 4.768343 -3.364526 0.044601
 H 6.017414 -2.288257 -2.535633
 H 5.991368 -4.036310 -1.931070