22
charge = 0
 C 4.242406 0.256689 1.669607
 C 4.133134 1.679249 1.154159
 N 4.032564 1.769441 -0.290326
 C 3.700880 3.109492 -0.739601
 C 2.251988 3.487839 -0.485850
 C 5.152690 1.189785 -1.011535
 C 6.521456 1.831261 -0.795822
 H 4.162341 0.248024 2.758928
 H 5.196230 -0.207964 1.410936
 H 3.439988 -0.361675 1.260633
 H 4.974904 2.279743 1.547167
 H 3.228073 2.126347 1.571830
 H 3.884166 3.146207 -1.817958
 H 4.360549 3.873495 -0.288835
 H 1.582452 2.752193 -0.936237
 H 2.037439 4.466678 -0.922081
 H 2.018403 3.551420 0.578801
 H 4.901944 1.230211 -2.076444
 H 5.209282 0.127407 -0.759345
 H 6.522361 2.887752 -1.074881
 H 7.271336 1.326739 -1.410382
 H 6.848315 1.759069 0.244507