22
charge = 0
 C 3.259748 -2.090209 -2.340236
 C 4.576681 -1.543379 -1.826215
 N 4.608437 -1.597580 -0.378439
 C 5.816914 -1.132681 0.308500
 C 5.986666 0.365197 0.072025
 C 7.085688 -1.871467 -0.131136
 C 5.582705 -1.378313 1.794925
 H 3.210398 -2.029569 -3.429639
 H 2.421221 -1.531144 -1.920191
 H 3.135664 -3.141537 -2.062337
 H 4.676423 -0.499451 -2.137459
 H 5.404594 -2.092541 -2.304964
 H 4.408160 -2.545431 -0.078264
 H 5.071858 0.896273 0.343502
 H 6.217539 0.588796 -0.971971
 H 6.808389 0.753335 0.678367
 H 7.300700 -1.705682 -1.189094
 H 6.982767 -2.948693 0.030661
 H 7.953311 -1.528335 0.438514
 H 4.685288 -0.853890 2.129468
 H 6.433369 -1.032941 2.386735
 H 5.447969 -2.445878 1.997050