22
charge = 0
 C 3.500961 -0.200967 0.347839
 C 4.198465 -1.207205 -0.543128
 N 3.374027 -1.563252 -1.678671
 C 4.017695 -2.472778 -2.602198
 C 3.118502 -2.842047 -3.775648
 C 3.891650 -3.663846 -4.796437
 C 1.865344 -3.571939 -3.315247
 H 4.113926 0.039854 1.218992
 H 2.542401 -0.592939 0.694030
 H 3.309071 0.733353 -0.188666
 H 4.400710 -2.123390 0.023156
 H 5.184704 -0.811401 -0.848219
 H 3.101408 -0.720180 -2.172827
 H 4.275080 -3.386851 -2.051031
 H 4.971328 -2.069403 -2.990902
 H 2.810789 -1.904052 -4.260511
 H 4.240064 -4.602423 -4.353266
 H 4.767417 -3.125973 -5.169103
 H 3.263577 -3.918557 -5.653577
 H 2.127741 -4.539830 -2.875269
 H 1.189553 -3.760960 -4.153394
 H 1.331489 -2.995425 -2.558712