15
charge = 0
 C 1.022169 -0.182643 -0.297243
 C 2.278915 0.042860 0.075788
 N 2.984714 -0.686178 1.027493
 C 2.293155 -1.439943 1.977416
 C 2.743005 -2.546708 2.560008
 C 4.375640 -0.651150 1.044473
 N 5.166064 -0.274790 0.131778
 H 0.542814 0.492901 -0.991939
 H 0.448209 -1.026682 0.063704
 H 2.840211 0.875721 -0.334681
 H 1.324084 -1.022439 2.232434
 H 3.678992 -3.015663 2.283402
 H 2.161861 -3.009985 3.345507
 H 4.780199 -0.977539 2.001792
 H 4.681388 -0.049063 -0.735343