21
charge = 0
 C 0.798634 -0.058805 -0.168496
 C 2.310801 -0.196249 -0.035339
 N 2.776279 -1.579399 0.006998
 C 3.020108 0.550884 -1.158077
 C 4.541485 0.536821 -1.081564
 C 5.120071 1.190792 0.162765
 N 4.678883 2.573761 0.291969
 H 0.284812 -0.582772 0.642422
 H 0.454216 -0.487008 -1.115998
 H 0.488375 0.989633 -0.141135
 H 2.606294 0.262300 0.915569
 H 2.511537 -2.055931 -0.849469
 H 2.326675 -2.079608 0.764675
 H 2.665160 1.584700 -1.157532
 H 2.707896 0.111828 -2.115517
 H 4.942631 1.045678 -1.967415
 H 4.901522 -0.494487 -1.121721
 H 6.215380 1.081280 0.133913
 H 4.781633 0.645552 1.048810
 H 5.048427 3.132108 -0.468956
 H 5.026772 2.982602 1.149799