15
charge = 0
 C 0.924649 -0.132543 0.025104
 C 2.421263 -0.092060 -0.033338
 N 3.059561 -0.772708 0.948888
 C 3.092595 0.583000 -1.007516
 C 2.448236 1.354676 -2.121099
 C 4.505100 0.546568 -0.954966
 N 5.657745 0.488380 -0.871013
 H 0.579174 -0.721715 0.875345
 H 0.509420 -0.576561 -0.881505
 H 0.509434 0.872259 0.122457
 H 2.543587 -1.260922 1.653408
 H 4.064722 -0.796717 0.983508
 H 1.361456 1.310286 -2.057027
 H 2.739113 0.962148 -3.099816
 H 2.739127 2.408901 -2.097271