21
charge = 0
 C 0.934243 -0.225617 -0.609141
 C 1.874411 -1.415499 -0.644579
 N 2.794077 -1.469238 0.478132
 C 2.105597 -1.698301 1.728646
 C 3.834059 -2.452765 0.249205
 C 5.007331 -2.338106 1.208860
 N 6.068600 -3.236684 0.781721
 H 0.371121 -0.169739 -1.543535
 H 1.497695 0.702560 -0.489968
 H 0.206845 -0.291280 0.202025
 H 2.479826 -1.355562 -1.553822
 H 1.284988 -2.349989 -0.723452
 H 1.368913 -0.914675 1.906551
 H 2.808907 -1.672389 2.561469
 H 1.583558 -2.673605 1.751224
 H 4.216416 -2.296901 -0.765953
 H 3.447037 -3.487957 0.282142
 H 4.706142 -2.644331 2.214175
 H 5.301052 -1.279244 1.268422
 H 6.481661 -2.911464 -0.084086
 H 6.810631 -3.268202 1.468265