17
charge = 0
 C 3.338110 -1.139709 0.046827
 C 2.802822 0.231497 0.406410
 N 3.168194 1.268119 -0.548578
 C 2.466794 2.507714 -0.287519
 C 4.590080 1.470724 -0.678214
 C 5.256433 1.911943 0.564003
 N 5.726770 2.247413 1.558529
 H 2.904237 -1.889785 0.710925
 H 4.422627 -1.207696 0.158254
 H 3.077183 -1.399973 -0.981476
 H 3.118132 0.500983 1.429620
 H 1.709902 0.197047 0.417088
 H 1.391229 2.324345 -0.316470
 H 2.706016 3.238624 -1.063439
 H 2.714318 2.949475 0.691429
 H 4.778365 2.225206 -1.446750
 H 5.075699 0.550645 -1.010218