19
charge = 0
 C 2.036797 0.512252 -1.295462
 C 2.303851 0.107633 0.147131
 N 2.954373 1.138964 0.921096
 C 2.130870 2.040090 1.696840
 C 1.633105 1.447848 3.005633
 C 4.307823 1.294943 0.884603
 N 5.195863 0.631474 0.257777
 H 1.548247 -0.299812 -1.839448
 H 2.967802 0.757769 -1.809648
 H 1.386056 1.388638 -1.341054
 H 2.917294 -0.798966 0.179277
 H 1.364860 -0.147409 0.645427
 H 1.280480 2.362732 1.084406
 H 2.717984 2.939809 1.898857
 H 1.039809 0.545766 2.838040
 H 1.001806 2.166199 3.534692
 H 2.471409 1.183840 3.653744
 H 4.643717 2.129775 1.505181
 H 4.797154 -0.122345 -0.298694