15
charge = 0
 C 1.446276 0.894320 0.147299
 C 2.649970 -0.004080 -0.046946
 N 3.175169 -0.464617 1.218908
 C 4.470300 -0.781232 1.411243
 C 4.983270 -1.449272 2.468081
 C 6.370405 -1.668382 2.588728
 N 7.504459 -1.859623 2.701146
 H 1.058385 1.224081 -0.818124
 H 1.706136 1.775102 0.737401
 H 0.639085 0.364815 0.661165
 H 3.449475 0.541254 -0.554973
 H 2.382825 -0.851181 -0.693525
 H 2.505263 -0.833697 1.875460
 H 5.141290 -0.427973 0.633592
 H 4.349092 -1.830524 3.261136