21
charge = 0
 C 1.257773 -0.267842 0.195939
 C 2.691152 0.199994 0.335798
 N 3.281992 -0.285161 1.566860
 C 4.683187 0.054579 1.713136
 C 5.184423 -0.252217 3.121939
 C 4.649107 0.745751 4.141195
 N 4.868701 -1.643632 3.441790
 H 0.806482 0.124459 -0.717901
 H 0.660245 0.062230 1.048353
 H 1.203319 -1.359673 0.148585
 H 2.721089 1.295138 0.356870
 H 3.268320 -0.107197 -0.555148
 H 3.199740 -1.295890 1.592651
 H 4.796925 1.126561 1.519457
 H 5.318130 -0.475015 0.983865
 H 6.277026 -0.175880 3.092500
 H 3.556126 0.739500 4.131343
 H 4.982758 1.763512 3.918805
 H 4.989586 0.493290 5.148942
 H 3.894798 -1.707096 3.719359
 H 5.409407 -1.950192 4.240862