19
charge = 0
 C 2.877207 0.589306 -0.189744
 C 1.398934 0.407816 -0.497105
 N 0.972770 -0.973889 -0.560121
 C 0.804651 -1.717538 0.668265
 C -0.623969 -2.188727 0.899094
 N 1.242833 -1.574877 -1.716371
 C 1.162625 -2.840961 -1.862517
 H 3.138343 1.650427 -0.169455
 H 3.484271 0.101133 -0.954817
 H 3.141469 0.162239 0.781412
 H 1.160786 0.853884 -1.464271
 H 0.786715 0.915989 0.254439
 H 1.113327 -1.070230 1.492846
 H 1.495175 -2.572838 0.671849
 H -1.299189 -1.335060 0.986071
 H -0.690147 -2.773184 1.820406
 H -0.979950 -2.810119 0.076128
 H 1.389483 -3.230482 -2.847454
 H 0.875745 -3.545289 -1.082744