17
charge = 0
 C 2.501198 -0.990200 0.648395
 C 2.959389 0.122291 -0.277160
 N 3.080793 1.370227 0.436654
 C 4.190980 1.965432 0.395093
 N 4.408005 3.214020 0.956896
 C 3.746743 3.578007 2.180287
 C 5.214263 3.343089 2.154487
 H 2.347365 -1.917673 0.091753
 H 1.562805 -0.718421 1.135740
 H 3.243502 -1.178083 1.427931
 H 2.211594 0.258426 -1.066843
 H 3.901212 -0.163095 -0.773743
 H 5.068157 1.575874 -0.139760
 H 3.118443 2.820118 2.636082
 H 3.367170 4.592638 2.223403
 H 5.576500 2.429544 2.617558
 H 5.903972 4.179796 2.171746