13
charge = 0
 C 1.087155 0.059298 -0.029064
 C 2.409148 0.205369 0.013494
 N 3.255958 -0.502932 0.836931
 C 4.630876 -0.369921 0.900054
 N 5.392845 0.405380 0.238334
 C 5.215936 -1.262581 1.869357
 C 5.672663 -2.016821 2.683038
 H 0.499254 0.659219 -0.708154
 H 0.562767 -0.650298 0.601088
 H 2.900717 0.924510 -0.630795
 H 2.847687 -1.184372 1.455600
 H 4.877751 0.989852 -0.415135
 H 6.101255 -2.677403 3.399851