19
charge = 0
 C 0.815850 -0.105351 -0.058480
 C 2.346009 -0.020877 -0.057404
 N 2.947545 -0.832898 -1.107257
 C 2.785371 1.434918 -0.314610
 N 2.436370 1.866388 -1.661828
 C 2.862599 -0.430757 1.292409
 C 3.852142 -1.281466 1.524224
 H 0.429844 0.287277 -1.001868
 H 0.377822 0.473441 0.760571
 H 0.491356 -1.143157 0.052458
 H 2.554254 -0.535055 -1.993773
 H 2.684503 -1.804163 -0.981229
 H 3.861997 1.495148 -0.121113
 H 2.285851 2.080457 0.413009
 H 3.228852 1.781618 -2.283014
 H 2.141573 2.831479 -1.679973
 H 2.356384 0.038176 2.134461
 H 4.389136 -1.754609 0.709890
 H 4.161833 -1.517958 2.535728