15
charge = 0
 C 0.758484 -0.394637 -0.111445
 C 2.213367 0.047442 -0.002378
 N 2.297175 1.438499 0.401003
 C 3.330268 2.245001 0.000612
 N 3.702484 3.360695 0.473685
 C 2.968160 -0.837604 0.891457
 C 3.574477 -1.548813 1.644805
 H 0.232502 0.241259 -0.824736
 H 0.262551 -0.320576 0.858963
 H 0.698324 -1.432877 -0.439818
 H 2.668617 -0.012509 -0.997042
 H 1.890544 1.650434 1.300729
 H 3.853066 1.854707 -0.876450
 H 3.155053 3.629042 1.292190
 H 4.120638 -2.176461 2.309034