19
charge = 0
 C 3.156584 -0.626747 -1.683146
 C 3.323980 -0.155184 -0.253124
 N 4.209269 0.990481 -0.194056
 C 4.441120 1.489946 0.950672
 N 5.249699 2.560356 1.139226
 C 5.465254 3.071199 2.469813
 C 5.873807 3.157389 -0.014761
 H 2.489755 -1.491133 -1.736873
 H 4.122888 -0.907156 -2.108243
 H 2.740512 0.171335 -2.302035
 H 3.716489 -0.983288 0.354922
 H 2.336127 0.093556 0.161355
 H 4.009189 1.100531 1.884555
 H 4.534448 3.411638 2.937281
 H 6.138393 3.925767 2.419350
 H 5.926318 2.326553 3.128409
 H 5.122841 3.506563 -0.730079
 H 6.501697 2.431538 -0.540545
 H 6.487011 3.999868 0.302678