19
charge = 0
 C 1.095747 -0.550163 0.362563
 C 2.532009 -0.225208 0.010721
 N 2.939544 1.013350 0.622299
 C 4.208197 1.517349 0.506625
 N 5.127888 1.071981 -0.256481
 C 4.459861 2.726728 1.373174
 C 5.836310 3.335009 1.204092
 H 0.787711 -1.483164 -0.111528
 H 0.421637 0.240832 0.025608
 H 0.972090 -0.670582 1.442552
 H 2.631579 -0.138302 -1.077763
 H 3.190502 -1.049024 0.322635
 H 2.389367 1.336301 1.400117
 H 4.825173 0.250965 -0.775566
 H 4.302858 2.432300 2.418706
 H 3.683869 3.469093 1.152517
 H 6.614567 2.608962 1.440134
 H 5.952743 4.200899 1.859836
 H 5.996847 3.652272 0.173368