14
charge = 0
 C 0.852016 0.039163 -0.244867
 C 2.362427 -0.046434 -0.221591
 N 2.804419 -0.972866 0.790697
 C 4.118455 -1.235812 1.017566
 N 5.150545 -0.771415 0.434183
 C 4.323640 -2.194794 2.091893
 N 4.442832 -2.954153 2.946137
 H 0.526280 0.740952 -1.013308
 H 0.462347 0.388361 0.714462
 H 0.405908 -0.933094 -0.467599
 H 2.792177 0.944682 -0.027078
 H 2.735241 -0.369732 -1.201826
 H 2.117938 -1.429767 1.365660
 H 4.900463 -0.110799 -0.298428