17
charge = 0
 C 0.880336 -0.180196 0.016309
 C 2.374066 -0.089063 -0.072440
 N 3.065069 0.714884 0.635342
 N 2.407287 1.509278 1.534911
 C 3.068066 -0.956616 -1.053476
 C 3.617732 -0.352206 -2.326279
 C 4.541645 -0.855202 -1.265752
 H 0.400409 0.746420 -0.323789
 H 0.565098 -0.344247 1.051949
 H 0.493870 -0.990359 -0.600915
 H 2.996046 2.287870 1.786489
 H 1.489086 1.828397 1.241828
 H 2.624569 -1.941390 -1.164743
 H 3.519458 0.721075 -2.434876
 H 3.518480 -0.917706 -3.244974
 H 5.060901 -0.123414 -0.661494
 H 5.084590 -1.773026 -1.453311