15
charge = 0
 C 1.249835 2.507672 -0.993935
 C 2.587090 2.042735 -0.559964
 N 3.594575 2.113522 -1.333815
 N 4.749588 1.629211 -0.742477
 C 5.759908 1.700710 -1.520912
 C 7.059614 1.243841 -1.085460
 C 8.138454 1.300708 -1.865337
 H 0.883738 3.293018 -0.324759
 H 0.525190 1.688889 -0.938457
 H 1.286299 2.889546 -2.013444
 H 2.707745 1.630854 0.446659
 H 5.652121 2.110352 -2.529412
 H 7.114671 0.846089 -0.076772
 H 8.083041 1.698410 -2.873693
 H 9.106240 0.954144 -1.524533