17
charge = 0
 C 1.067610 0.185547 -0.266750
 C 2.493755 -0.201084 -0.105284
 N 3.088908 -0.903457 -0.978753
 N 4.367226 -1.294011 -0.747480
 C 5.142685 -1.532345 -1.946790
 C 6.402056 -2.259093 -1.611660
 C 7.616990 -1.831493 -1.923405
 H 0.948992 1.273603 -0.246247
 H 0.456243 -0.215398 0.548545
 H 0.682372 -0.194448 -1.212902
 H 3.016436 0.127207 0.804066
 H 4.861872 -0.730188 -0.059427
 H 5.375541 -0.607472 -2.495638
 H 4.515222 -2.145867 -2.600699
 H 6.275043 -3.195576 -1.073129
 H 7.767697 -0.894477 -2.451269
 H 8.503162 -2.403259 -1.673488