15
charge = 0
 C 0.855053 -0.120618 -0.253872
 C 2.338454 0.037567 0.055031
 N 2.554459 1.121918 1.009160
 N 2.313336 2.348224 0.511550
 C 2.841947 3.357909 1.069406
 C 2.911669 -1.183766 0.609037
 C 3.383271 -2.189255 1.063320
 H 0.465903 0.825497 -0.630262
 H 0.310968 -0.395053 0.650657
 H 0.706478 -0.894184 -1.008589
 H 2.868897 0.255068 -0.884579
 H 3.408894 1.024846 1.550728
 H 2.598328 4.338397 0.678794
 H 3.517024 3.283212 1.927838
 H 3.797718 -3.084562 1.463091