14
charge = 0
 C 0.764261 0.255184 -0.260938
 C 2.209086 -0.009302 0.052780
 N 3.038712 -0.670379 -0.652951
 N 2.642026 0.565435 1.218443
 C 3.969862 0.265619 1.689536
 C 4.307373 1.097452 2.836071
 N 4.562099 1.742015 3.752525
 H 0.490569 -0.201156 -1.210663
 H 0.573362 1.329482 -0.317925
 H 0.117000 -0.157184 0.518232
 H 2.604977 -0.993917 -1.510391
 H 1.956402 0.835491 1.901898
 H 4.681563 0.448909 0.880203
 H 4.090618 -0.789849 1.967169