17
charge = 0
 C 0.687301 0.039605 -0.192104
 N 2.111676 0.099898 0.021451
 C 3.039920 -0.828928 -0.578427
 C 2.624168 -1.623690 -1.794593
 N 2.220777 -0.661703 -2.815787
 C 2.619264 0.684022 -2.414210
 C 3.036885 0.607016 -0.963965
 H 0.260160 -0.686105 0.503780
 H 0.364629 -0.233564 -1.205367
 H 0.256798 1.014900 0.046285
 H 3.781320 -1.257743 0.090033
 H 1.810455 -2.327444 -1.585211
 H 3.481613 -2.222926 -2.127270
 H 1.232200 -0.713588 -3.001185
 H 1.802481 1.394721 -2.584548
 H 3.474579 1.039463 -3.003330
 H 3.775966 1.315865 -0.601052