16
charge = 0
 C 1.068436 0.345645 -0.212868
 N 2.495397 0.308832 0.011630
 C 3.233924 -0.717239 -0.695912
 C 3.334214 0.705172 -1.092185
 C 4.554842 1.535152 -0.775415
 C 4.268058 2.960451 -0.729768
 C 4.013303 4.133336 -0.706443
 H 0.575185 -0.344624 0.475214
 H 0.786337 0.069340 -1.241501
 H 0.698149 1.353071 -0.012343
 H 2.679650 -1.379594 -1.357396
 H 4.039464 -1.189761 -0.142072
 H 2.824531 0.980366 -2.014766
 H 5.329772 1.347521 -1.527260
 H 4.956846 1.210981 0.189196
 H 3.791794 5.173752 -0.678503