19
charge = 0
 C 1.722136 0.644456 0.365031
 N 2.746596 0.311385 -0.595676
 C 2.325248 -0.297041 -1.839612
 C 2.900472 1.070891 -1.834831
 C 4.330490 1.275994 -2.256729
 C 1.972435 2.221152 -2.153270
 N 2.397908 3.444287 -1.490007
 H 1.502127 -0.244684 0.961122
 H 0.775309 0.994180 -0.070801
 H 2.096350 1.411903 1.048424
 H 1.254289 -0.385014 -2.019323
 H 2.916144 -1.139604 -2.187352
 H 4.938103 0.425886 -1.944997
 H 4.734457 2.183397 -1.804556
 H 4.401904 1.380550 -3.343585
 H 0.934375 1.932551 -1.935466
 H 2.019821 2.392639 -3.233805
 H 2.262258 3.373498 -0.489244
 H 1.854196 4.234676 -1.810601