17
charge = 0
 C 1.056382 0.171314 0.475747
 N 2.448764 0.070396 0.081340
 C 2.757012 -1.271024 -0.432467
 C 2.527101 -1.226416 -1.935329
 N 3.665254 -0.652141 -2.659686
 C 2.523319 0.199588 -2.312888
 C 2.751299 0.983201 -1.029344
 H 0.856656 -0.524914 1.293322
 H 0.343019 -0.046318 -0.339267
 H 0.852331 1.179968 0.841857
 H 2.136175 -2.016900 0.066687
 H 3.806801 -1.509076 -0.236699
 H 1.900913 -1.958468 -2.432228
 H 3.616248 -0.911772 -3.640220
 H 1.894111 0.586852 -3.106007
 H 2.126302 1.875400 -0.963925
 H 3.799712 1.291902 -0.978404