16
charge = 0
 C 1.125955 0.015413 -0.038705
 N 2.556085 0.068031 0.070046
 C 3.173420 1.113901 0.888445
 C 4.249490 0.104391 1.307650
 C 3.231407 -0.967819 0.864251
 C 3.683248 -2.149828 0.155787
 C 4.064146 -3.132388 -0.420087
 H 0.766044 0.884292 -0.595063
 H 0.621236 0.001175 0.944244
 H 0.831623 -0.880575 -0.590215
 H 2.542862 1.414012 1.741362
 H 3.481933 2.007982 0.341614
 H 4.559743 0.086709 2.350185
 H 5.119272 0.122878 0.653170
 H 2.617952 -1.281067 1.727585
 H 4.402684 -3.998708 -0.937360