19
charge = 0
 C 0.979534 -0.116827 -0.019711
 N 2.412418 -0.087353 0.069980
 C 3.048137 0.984329 0.835489
 C 4.118011 -0.018989 1.287826
 C 3.102022 -1.097064 0.879549
 C 3.589533 -2.331852 0.162692
 N 2.478295 -3.203906 -0.191017
 H 0.627040 0.738932 -0.602094
 H 0.491296 -0.078935 0.972184
 H 0.665879 -1.031311 -0.524882
 H 2.430382 1.326943 1.682250
 H 3.359524 1.854933 0.251422
 H 4.433915 0.010823 2.329168
 H 4.992794 -0.016631 0.635530
 H 2.491633 -1.395884 1.753741
 H 4.355482 -2.815802 0.792523
 H 4.081565 -2.011495 -0.760043
 H 2.083841 -3.628129 0.640280
 H 2.789698 -3.959572 -0.787478