15
charge = 0
 C 1.006284 -0.017404 -0.016223
 N 2.440678 -0.019299 0.007636
 C 3.134020 1.041125 0.733177
 C 4.195072 0.005366 1.174244
 C 3.130305 -1.046465 0.782878
 C 5.391740 -0.016204 0.359811
 N 6.350194 -0.032972 -0.275916
 H 0.646078 0.852228 -0.570666
 H 0.561116 0.007727 0.994963
 H 0.643140 -0.911554 -0.528114
 H 2.574477 1.410200 1.607001
 H 3.469780 1.885937 0.128890
 H 4.478492 0.029905 2.225899
 H 2.569528 -1.371535 1.673229
 H 3.463026 -1.920254 0.219500