15
charge = 0
 C 1.495059 0.629820 -0.353781
 N 2.774447 0.353524 0.238434
 C 3.021574 0.727755 1.634349
 C 3.869293 -0.542585 1.791021
 C 3.119675 -1.035627 0.536552
 C 3.860257 -1.747949 -0.496660
 N 4.449818 -2.318522 -1.302256
 H 1.361360 1.709893 -0.444811
 H 0.653776 0.224328 0.235053
 H 1.453124 0.202794 -1.358278
 H 2.110704 0.690472 2.252095
 H 3.508954 1.695048 1.772432
 H 3.745943 -1.134220 2.694877
 H 4.925050 -0.371974 1.589824
 H 2.244368 -1.646437 0.813960