18
charge = 0
 C 1.152354 -0.068619 -0.084692
 N 2.558189 -0.091465 0.209227
 C 3.028507 1.026806 1.003563
 C 4.445630 0.610392 1.373200
 C 4.337522 -0.890658 1.488879
 C 5.232615 -1.714396 2.013005
 C 3.002177 -1.281469 0.911292
 H 0.898795 0.843971 -0.629305
 H 0.525675 -0.110555 0.825943
 H 0.887046 -0.920392 -0.715676
 H 2.419596 1.161820 1.918635
 H 2.978563 1.956149 0.430784
 H 4.810991 1.080253 2.287791
 H 5.134234 0.868499 0.562929
 H 6.161293 -1.346810 2.435356
 H 5.071106 -2.786661 2.038757
 H 2.309570 -1.547658 1.735116
 H 3.056945 -2.142597 0.239207