15
charge = 0
 C 1.116625 0.131794 -0.259402
 N 2.504249 0.059044 0.071395
 C 3.300874 -1.147173 0.183960
 C 4.656147 -0.588237 0.551588
 C 5.786398 -1.260692 0.780682
 C 4.429757 0.844496 0.594090
 N 3.206288 1.160435 0.317700
 H 0.745436 -0.881066 -0.419108
 H 0.947046 0.705873 -1.176736
 H 0.529967 0.587137 0.545819
 H 3.323979 -1.702116 -0.762005
 H 2.905670 -1.818013 0.956738
 H 5.836218 -2.341113 0.719275
 H 6.698814 -0.736662 1.038214
 H 5.156931 1.609484 0.823201