17
charge = 0
 C 1.203940 0.111136 -0.242756
 N 2.449467 0.027566 0.471921
 C 3.294114 -1.122729 0.161964
 C 4.669592 -0.624289 0.575723
 C 4.459061 0.859864 0.415713
 C 5.539415 1.874771 0.434449
 N 3.222279 1.168730 0.354586
 H 0.577118 -0.741196 0.027532
 H 1.343075 0.110566 -1.336434
 H 0.689872 1.028192 0.043143
 H 3.270707 -1.330171 -0.921989
 H 2.957459 -2.014248 0.692876
 H 5.485903 -1.021011 -0.029872
 H 4.891208 -0.855261 1.625888
 H 6.262345 1.695778 -0.367429
 H 6.096146 1.835448 1.377345
 H 5.120600 2.873876 0.317851