15
charge = 0
 C 0.916933 0.039915 -0.077131
 N 2.351284 0.018961 -0.070807
 C 3.163423 1.101522 -0.067989
 C 4.470738 0.674309 -0.061953
 C 4.447011 -0.744328 -0.061085
 N 5.549810 -1.567227 -0.055752
 C 3.121005 -1.122715 -0.066635
 H 0.575744 1.074638 -0.079302
 H 0.510846 -0.455875 0.809436
 H 0.518655 -0.457027 -0.966592
 H 2.756007 2.100435 -0.070470
 H 5.346011 1.305858 -0.058557
 H 6.470609 -1.180267 -0.051311
 H 5.454375 -2.561773 -0.054890
 H 2.667459 -2.101015 -0.067961