15
charge = 0
 C 1.026220 -0.079690 -0.256511
 N 2.440133 -0.019780 0.007341
 C 3.128861 1.181716 0.103579
 C 4.434872 1.214172 0.348118
 C 5.214374 -0.056649 0.529784
 N 4.412251 -1.266488 0.412215
 C 3.172769 -1.171962 0.176699
 H 0.641496 0.934754 -0.356771
 H 0.481448 -0.566165 0.558876
 H 0.809249 -0.614376 -1.186738
 H 2.531895 2.075518 -0.033357
 H 4.939968 2.169997 0.416564
 H 5.712871 -0.071333 1.509348
 H 6.034373 -0.118414 -0.199626
 H 2.582522 -2.085811 0.090867