19
charge = 0
 C 1.159582 -0.085908 -0.127540
 N 2.585529 0.012710 -0.016312
 C 3.157761 1.106992 0.770023
 C 4.258014 0.145101 1.254408
 C 5.552983 0.225831 0.462664
 N 6.527242 -0.816334 0.731797
 C 3.297292 -0.969891 0.801178
 H 0.769766 0.762898 -0.695358
 H 0.652910 -0.103658 0.855193
 H 0.889371 -0.998263 -0.665689
 H 2.500494 1.433312 1.591913
 H 3.464941 1.984801 0.191195
 H 4.469462 0.172767 2.325856
 H 5.315862 0.206930 -0.606016
 H 6.028570 1.193955 0.655744
 H 6.774346 -0.829460 1.714301
 H 6.144194 -1.727908 0.512186
 H 2.688525 -1.356071 1.634544
 H 3.713258 -1.820118 0.248023