15
charge = 0
 C 1.146356 0.053103 -0.039684
 N 2.526229 0.305627 0.249756
 C 3.256112 1.373539 -0.186962
 N 4.527693 1.298552 -0.057475
 C 4.793050 -0.025359 0.426860
 C 4.395104 -1.177197 -0.455030
 C 3.452080 -0.717086 0.617330
 H 0.640684 0.998562 -0.242990
 H 0.655162 -0.412875 0.819076
 H 1.013736 -0.605855 -0.907919
 H 2.741567 2.240069 -0.591296
 H 5.631939 -0.144436 1.100621
 H 4.903832 -2.116278 -0.278488
 H 4.152139 -0.962170 -1.489659
 H 3.175417 -1.356696 1.447871