19
charge = 0
 C 2.117292 0.519129 -0.978750
 N 3.468481 0.336711 -0.491896
 C 3.574175 0.366382 0.932373
 C 4.781106 0.953020 1.577975
 C 3.443372 1.634374 1.733137
 C 2.764683 1.643909 3.069875
 N 3.271392 2.731569 3.894716
 H 2.116125 0.510119 -2.070527
 H 1.638631 1.449894 -0.635574
 H 1.494893 -0.314954 -0.642982
 H 4.090903 1.019673 -0.902756
 H 3.170586 -0.528768 1.400983
 H 5.519744 1.420765 0.936375
 H 5.201452 0.439259 2.435546
 H 3.316537 2.545923 1.155608
 H 2.883685 0.646751 3.526474
 H 1.688886 1.798659 2.932652
 H 4.269802 2.624646 4.030693
 H 2.841665 2.720141 4.811399