19
charge = 0
 C 1.767447 0.280322 -0.214152
 N 3.089264 -0.289689 -0.066689
 C 3.598181 -0.253770 1.263385
 C 5.068052 -0.182402 1.506690
 C 4.194622 0.967516 1.936822
 C 4.310540 2.269666 1.187637
 N 3.960585 1.037689 3.353711
 H 1.448799 0.204605 -1.255893
 H 1.689707 1.333446 0.097392
 H 1.058162 -0.294662 0.387792
 H 3.740949 0.116288 -0.723015
 H 3.043808 -0.891024 1.947112
 H 5.704684 -0.021914 0.642506
 H 5.493737 -0.812790 2.276658
 H 4.392385 2.120407 0.108061
 H 5.197972 2.824302 1.509602
 H 3.437713 2.903954 1.370725
 H 4.723459 1.513792 3.822819
 H 3.113244 1.557653 3.551827