15
charge = 0
 C 3.311800 0.060495 0.854990
 N 2.394885 -0.101057 -0.254576
 C 2.849715 0.439835 -1.478995
 C 1.899375 0.994699 -2.463868
 C 2.832565 1.952360 -1.749711
 C 3.907722 2.557173 -2.466306
 N 4.789188 3.021235 -3.045452
 H 2.884868 -0.396466 1.748877
 H 3.559166 1.108924 1.079268
 H 4.246111 -0.460134 0.631272
 H 1.468316 0.230929 -0.024506
 H 3.721292 -0.067993 -1.881225
 H 0.853523 1.056105 -2.185942
 H 2.078073 0.814919 -3.515564
 H 2.396200 2.572153 -0.974760