19
charge = 0
 C 2.531067 -1.408409 0.032536
 N 2.359885 0.027400 0.006493
 C 2.873177 0.672668 -1.167197
 C 2.831402 2.205552 -1.208657
 C 4.127312 2.178910 -2.038101
 C 4.397529 0.764325 -1.505407
 N 5.083507 -0.147193 -2.384310
 H 2.089926 -1.816469 0.944463
 H 3.577659 -1.749576 -0.017406
 H 2.000372 -1.851083 -0.815428
 H 2.763491 0.447904 0.834701
 H 2.354657 0.258879 -2.043396
 H 3.006024 2.621666 -0.212058
 H 1.947616 2.680859 -1.633666
 H 4.880766 2.945906 -1.859039
 H 3.910814 2.146263 -3.109749
 H 4.957975 0.825829 -0.564203
 H 4.561235 -0.279222 -3.242463
 H 5.203398 -1.057290 -1.958334