19
charge = 0
 C 3.011518 -0.554675 1.120112
 N 2.345135 -0.012526 -0.043948
 C 3.031323 1.084562 -0.643666
 C 2.283341 2.246367 -1.231620
 C 0.784603 2.359042 -1.181361
 C 3.127409 2.460202 -0.012532
 N 4.289267 3.297766 -0.076051
 H 2.414439 -1.365569 1.542391
 H 3.204567 0.186332 1.912169
 H 3.975836 -0.977704 0.823969
 H 1.386800 0.225370 0.166042
 H 3.917616 0.779277 -1.198559
 H 2.715657 2.626023 -2.154451
 H 0.310103 1.743564 -1.950543
 H 0.381615 2.054639 -0.212344
 H 0.473237 3.394466 -1.340624
 H 2.559287 2.574013 0.909410
 H 4.546674 3.499405 -1.032466
 H 5.085963 2.863146 0.372772