16
charge = 0
 C 2.205792 0.453782 1.497445
 N 2.281769 -0.108436 0.166967
 C 3.177555 -1.243486 0.063565
 C 3.480124 -1.664091 -1.343907
 C 3.277568 -2.981012 -1.469145
 C 2.779557 -3.513594 -0.200104
 C 2.679249 -2.517384 0.688384
 H 1.598490 1.360387 1.475034
 H 3.188241 0.703839 1.933247
 H 1.713401 -0.249451 2.173372
 H 2.575276 0.602735 -0.489621
 H 4.160272 -1.034034 0.548158
 H 3.843451 -0.985782 -2.105028
 H 3.453744 -3.572733 -2.358411
 H 2.535903 -4.553745 -0.024229
 H 2.342908 -2.596215 1.712682