17
charge = 0
 C 1.163777 0.143098 -0.065139
 N 2.569760 -0.133424 0.026231
 C 3.115558 -0.900186 -0.820967
 C 2.547819 -1.599781 -2.044208
 C 3.683445 -2.507447 -2.515739
 C 4.937858 -1.817223 -1.983972
 N 4.450388 -1.226030 -0.760900
 H 1.003910 1.224787 -0.125826
 H 0.657718 -0.192673 0.846707
 H 0.651481 -0.317203 -0.921117
 H 2.300020 -0.842391 -2.794979
 H 1.629790 -2.142706 -1.818680
 H 3.707061 -2.645623 -3.597008
 H 3.589794 -3.491875 -2.051557
 H 5.303801 -1.063707 -2.697735
 H 5.752703 -2.518704 -1.790745
 H 5.039787 -0.652533 -0.180457