15
charge = 0
 C 1.087775 0.061037 0.065264
 N 2.519217 -0.097569 0.066763
 C 3.023160 -0.736610 1.037100
 C 2.376094 -1.392285 2.245934
 C 3.539937 -1.970164 2.993540
 C 4.654372 -1.685208 2.315717
 N 4.377089 -0.963748 1.167035
 H 0.783665 0.625730 -0.816963
 H 0.724408 0.605378 0.948985
 H 0.558378 -0.902523 0.041013
 H 1.645776 -2.143989 1.921865
 H 1.810606 -0.648748 2.821114
 H 3.482577 -2.520414 3.918989
 H 5.676786 -1.941210 2.554196
 H 5.045141 -0.633468 0.495138