19
charge = 0
 C 3.147498 0.099119 -1.203467
 N 2.328596 -0.012086 -0.015947
 C 2.877254 -0.875732 0.989353
 C 2.010503 -1.142240 2.228822
 C 2.532222 -2.591957 2.263421
 N 3.562024 -2.779207 3.265848
 C 2.985670 -2.414749 0.789209
 H 2.653600 0.742484 -1.934340
 H 3.373390 -0.863418 -1.690225
 H 4.100708 0.568764 -0.943567
 H 1.396729 -0.325455 -0.261235
 H 3.852472 -0.466917 1.277214
 H 0.948021 -1.104067 1.973584
 H 2.177853 -0.535166 3.120006
 H 1.771493 -3.359040 2.423280
 H 4.274892 -2.062640 3.189643
 H 4.026354 -3.670490 3.135937
 H 2.224938 -2.768535 0.085795
 H 3.952063 -2.843569 0.513160