15
charge = 0
 C 1.272054 0.000076 0.909804
 N 2.515996 -0.013768 0.207763
 C 3.163381 -1.181981 -0.117177
 C 4.362349 -1.315033 -0.789062
 N 4.629239 -2.659152 -0.893319
 C 3.641181 -3.376476 -0.311125
 C 2.708514 -2.495322 0.184748
 H 0.952674 1.032538 1.054553
 H 1.348086 -0.466715 1.901594
 H 0.476568 -0.519923 0.358338
 H 2.933554 0.855170 -0.057590
 H 5.031468 -0.572694 -1.192176
 H 5.439707 -3.046717 -1.337231
 H 3.664649 -4.453940 -0.287227
 H 1.802781 -2.763164 0.705016