19
charge = 0
 C 2.052054 0.859492 -0.957412
 N 2.244616 -0.197241 0.007327
 C 1.053081 -0.457166 0.774622
 C 2.898833 -1.326230 -0.586359
 C 2.695357 -2.739976 -0.141133
 C 2.240913 -2.330566 -1.507191
 N 2.879755 -2.881384 -2.668120
 H 1.714413 1.767297 -0.451104
 H 1.312782 0.608345 -1.738717
 H 3.000192 1.082908 -1.453178
 H 0.716996 0.479428 1.225897
 H 1.265090 -1.153734 1.586347
 H 0.209364 -0.855927 0.183148
 H 3.924109 -1.089627 -0.867441
 H 1.933617 -2.968677 0.592487
 H 3.578294 -3.364901 -0.062202
 H 1.163534 -2.240308 -1.614709
 H 3.779418 -3.279801 -2.434335
 H 3.033881 -2.172531 -3.374938