19
charge = 0
 C 2.605368 -2.145933 -0.540666
 N 3.860297 -1.431106 -0.610637
 C 3.704221 -0.048686 -1.006807
 C 5.011812 0.717852 -1.061261
 C 5.945274 0.549964 0.155927
 C 6.843229 -0.301586 -0.755825
 N 6.074723 0.164039 -1.921958
 H 2.789467 -3.196323 -0.306606
 H 2.009768 -2.097362 -1.467981
 H 1.991940 -1.731396 0.264270
 H 4.481421 -1.901339 -1.257092
 H 3.055404 0.443356 -0.271422
 H 3.193320 0.054638 -1.983864
 H 4.770614 1.755596 -1.320557
 H 5.509986 0.035602 1.010838
 H 6.407493 1.483411 0.476117
 H 6.760794 -1.373655 -0.544024
 H 7.902795 -0.032867 -0.793491
 H 5.796583 -0.533206 -2.600750