19
charge = 0
 C 1.246095 1.100157 -2.300898
 N 2.681670 0.933220 -2.288032
 C 3.156890 0.175419 -1.151032
 C 4.651122 0.046397 -1.187638
 C 5.541592 1.031307 -0.524851
 N 5.323702 -0.280789 0.047696
 C 6.427323 -1.208421 -0.047844
 H 0.952479 1.722285 -3.148777
 H 0.837814 1.553314 -1.381685
 H 0.766417 0.125106 -2.425961
 H 3.136007 1.838321 -2.299776
 H 2.705153 -0.823209 -1.195086
 H 2.864881 0.608281 -0.178406
 H 5.045536 -0.407430 -2.096584
 H 5.118794 1.864116 0.029851
 H 6.505442 1.228319 -0.989144
 H 7.101270 -1.059464 0.799114
 H 7.008967 -1.095045 -0.976846
 H 6.046446 -2.231403 -0.003799