19
charge = 0
 C 2.290796 -1.232579 0.359321
 N 2.759521 0.115844 0.140983
 C 3.700650 0.514706 1.159257
 C 3.158226 0.349834 -1.216398
 C 3.462165 1.774712 -1.702776
 N 4.462051 1.199294 -2.617163
 C 4.554690 -0.017120 -1.794857
 H 1.851985 -1.313154 1.357166
 H 3.089666 -1.991718 0.283845
 H 1.517343 -1.480842 -0.370885
 H 3.214512 0.460363 2.136593
 H 4.021365 1.545928 1.007848
 H 4.601941 -0.121376 1.200346
 H 2.389704 -0.083602 -1.860610
 H 3.891083 2.398697 -0.908501
 H 2.651105 2.326761 -2.184599
 H 5.319180 1.727496 -2.711910
 H 5.337366 0.022156 -1.025325
 H 4.655244 -0.948399 -2.358515