19
charge = 0
 C 2.244194 0.463718 -0.902989
 N 2.945399 -0.154027 0.200159
 C 3.375636 0.794912 1.203665
 C 4.126323 0.104992 2.328920
 C 4.590428 1.058727 3.391856
 C 3.737269 1.346729 4.560255
 N 4.964311 0.565810 4.712295
 H 1.999346 -0.288982 -1.654916
 H 2.807376 1.274352 -1.395704
 H 1.302680 0.889668 -0.544619
 H 3.748393 -0.664464 -0.147160
 H 2.483679 1.285534 1.610230
 H 4.004597 1.601484 0.782282
 H 4.994985 -0.422890 1.913386
 H 3.477190 -0.657495 2.773949
 H 5.242808 1.854989 3.039767
 H 2.783324 0.830234 4.619640
 H 3.755119 2.325144 5.027948
 H 4.737553 -0.421025 4.785546