16
charge = 0
 C 0.958575 0.076495 0.136554
 N 2.364179 0.075791 -0.207509
 C 2.865423 -1.243082 -0.576586
 C 2.418488 -1.599293 -1.971196
 C 1.689422 -2.663980 -2.264601
 C 4.324173 -1.254726 -0.497228
 C 5.522117 -1.264380 -0.427041
 H 0.662382 1.082519 0.437834
 H 0.698466 -0.621487 0.949603
 H 0.364347 -0.197615 -0.737779
 H 2.920345 0.439815 0.554693
 H 2.491361 -2.028360 0.106640
 H 2.733053 -0.901142 -2.741850
 H 1.370130 -3.360891 -1.495574
 H 1.390125 -2.882714 -3.282928
 H 6.584815 -1.276069 -0.369262