22
charge = 0
 C 1.219822 -0.052190 -0.303759
 N 2.655360 0.101071 -0.224674
 C 3.066695 1.041079 0.795503
 C 4.585308 1.114321 0.992596
 C 5.118868 -0.238433 1.455366
 C 5.271270 1.522265 -0.310160
 C 4.867920 2.169185 2.058716
 H 0.962902 -0.719610 -1.129022
 H 0.673417 0.896048 -0.445214
 H 0.848918 -0.509165 0.618116
 H 3.010211 0.399721 -1.124006
 H 2.610382 0.721110 1.740333
 H 2.687046 2.062507 0.600832
 H 4.864818 -1.020884 0.738385
 H 4.688316 -0.515878 2.422032
 H 6.206204 -0.208353 1.570148
 H 5.163695 0.755298 -1.081932
 H 6.343100 1.667280 -0.149750
 H 4.863275 2.461780 -0.696441
 H 4.373720 1.917568 3.001714
 H 4.514018 3.155964 1.745908
 H 5.940925 2.244826 2.254610