18
charge = 0
 C 0.872570 -0.023870 -0.070596
 N 2.316798 0.034990 0.004097
 C 2.891581 -1.111759 0.670152
 C 4.421700 -1.107289 0.587357
 C 5.044700 0.107102 1.277060
 C 4.949447 -2.346062 1.144841
 C 5.374079 -3.363244 1.621944
 H 0.490141 0.889752 -0.529832
 H 0.377040 -0.152661 0.905943
 H 0.573364 -0.862765 -0.704833
 H 2.592306 0.882797 0.482611
 H 2.520201 -2.012044 0.171602
 H 2.592958 -1.195772 1.730548
 H 4.684391 -1.072718 -0.476719
 H 4.746858 0.148473 2.327862
 H 4.737903 1.032212 0.784501
 H 6.133521 0.056149 1.237578
 H 5.754240 -4.266092 2.037604