14
charge = 0
 C 0.948956 -0.086963 -0.104222
 N 2.391078 -0.062315 0.001055
 C 2.930990 1.274328 -0.157418
 C 4.382159 1.280004 -0.171991
 C 5.589131 1.282705 -0.208881
 C 6.952056 1.287890 -0.244642
 C 8.157130 1.292745 -0.279102
 H 0.596772 -1.117065 -0.033320
 H 0.558034 0.350308 -1.038112
 H 0.511546 0.469031 0.729862
 H 2.808911 -0.676871 -0.685709
 H 2.582033 1.889664 0.681546
 H 2.573803 1.780127 -1.074331
 H 9.220870 1.296701 -0.306887