22
charge = 0
 C 1.411933 -0.098392 -0.276910
 N 2.789181 0.034868 0.139186
 C 3.026224 1.197456 0.967642
 C 4.492947 1.318087 1.337251
 C 4.853391 2.566525 2.138533
 C 4.151732 2.608970 3.490183
 C 6.362304 2.662490 2.318340
 H 1.306782 -0.954956 -0.945923
 H 1.008666 0.791814 -0.789670
 H 0.781889 -0.284938 0.597632
 H 3.392355 0.071677 -0.673514
 H 2.416723 1.086979 1.871202
 H 2.691703 2.135537 0.483571
 H 5.085492 1.315829 0.412876
 H 4.793025 0.423082 1.894853
 H 4.526604 3.441742 1.560448
 H 4.418199 1.732995 4.090809
 H 3.064552 2.626405 3.389961
 H 4.444444 3.498408 4.054280
 H 6.738943 1.808637 2.890697
 H 6.641020 3.571433 2.857773
 H 6.879969 2.670654 1.355468