17
charge = 0
 C 1.152293 0.158745 -0.108606
 N 2.584682 0.067056 0.040765
 C 3.149767 -1.186490 -0.089218
 C 2.494103 -2.342544 -0.204400
 C 3.366423 1.157008 0.431572
 C 2.786018 2.522133 0.201760
 N 4.532890 1.088696 0.937046
 H 0.842863 -0.326763 -1.038357
 H 0.836486 1.196312 -0.135712
 H 0.635482 -0.336095 0.722025
 H 4.231645 -1.175984 -0.152803
 H 1.416942 -2.425100 -0.148852
 H 3.055351 -3.252487 -0.363819
 H 2.398086 2.639250 -0.812801
 H 3.579501 3.245026 0.373387
 H 1.974269 2.736582 0.901943
 H 4.819711 0.132456 1.128561