15
charge = 0
 C 1.226654 0.204765 -0.219210
 N 2.618371 -0.159855 -0.166441
 C 3.365870 0.227547 1.007838
 C 3.508153 1.674077 1.175954
 C 3.603765 2.863645 1.301145
 C 3.295718 -0.428855 -1.326786
 N 2.856159 -0.515643 -2.514434
 H 0.814181 0.191201 0.790251
 H 0.673403 -0.521554 -0.818828
 H 1.067984 1.204473 -0.642342
 H 4.357905 -0.229178 0.948857
 H 2.882793 -0.188471 1.899033
 H 3.696405 3.918717 1.409551
 H 4.357680 -0.620247 -1.155348
 H 1.864469 -0.293832 -2.578329