15
charge = 0
 C 1.006334 -0.072457 -0.111293
 N 2.439589 -0.184810 -0.018727
 C 3.112586 0.043143 1.130751
 C 4.451579 0.211081 1.232876
 C 5.362166 0.203909 0.038070
 C 5.009635 0.376127 2.521673
 N 5.493372 0.516960 3.562117
 H 0.638735 -0.687608 -0.933798
 H 0.666886 0.958415 -0.268429
 H 0.553941 -0.444337 0.809345
 H 2.958911 -0.111288 -0.877640
 H 2.498922 0.058996 2.025534
 H 5.021787 0.909771 -0.728311
 H 5.418951 -0.788523 -0.423012
 H 6.373786 0.493321 0.318553