15
charge = 0
 C 1.045271 0.071995 0.413737
 N 2.438649 0.077399 0.047708
 C 3.024819 -0.827362 -0.779517
 C 2.119836 -1.646219 -1.636773
 C 4.377702 -0.945825 -0.837281
 C 5.028687 -1.823120 -1.723854
 N 5.579341 -2.541751 -2.443396
 H 0.823168 0.993916 0.951046
 H 0.771069 -0.773130 1.057692
 H 0.408942 0.049264 -0.471729
 H 3.058308 0.556811 0.679003
 H 1.504198 -1.003304 -2.271754
 H 1.443356 -2.249984 -1.025864
 H 2.698853 -2.311436 -2.273613
 H 5.011481 -0.343753 -0.194698