17
charge = 0
 C 2.898759 0.421862 -1.280973
 N 2.576879 0.010378 0.069770
 C 3.032207 -1.310628 0.483215
 C 2.560077 -1.539612 1.919190
 C 2.564032 -2.464557 -0.416219
 C 4.507598 -1.298038 0.479546
 N 5.656887 -1.320043 0.470841
 H 2.557084 1.448196 -1.424091
 H 2.457150 -0.197940 -2.074250
 H 3.983498 0.418120 -1.411876
 H 1.581520 0.074074 0.241883
 H 1.467265 -1.570611 1.936697
 H 2.899804 -0.727980 2.562305
 H 2.935075 -2.486789 2.307582
 H 1.471431 -2.493335 -0.418945
 H 2.935353 -3.421796 -0.046173
 H 2.914241 -2.341340 -1.441332