17
charge = 0
 C 1.031090 0.146750 0.256484
 N 2.462920 -0.052057 0.160225
 C 3.160664 0.289617 1.376801
 C 4.627624 -0.151507 1.312896
 C 5.419083 0.541930 0.204784
 C 5.258088 0.079780 2.608497
 N 5.749122 0.276374 3.629699
 H 0.566042 -0.074218 -0.705783
 H 0.739071 1.166314 0.555256
 H 0.614798 -0.546480 0.991993
 H 2.824870 0.494139 -0.610713
 H 2.674614 -0.235744 2.204043
 H 3.120536 1.365490 1.621918
 H 4.638251 -1.232353 1.134579
 H 5.375491 1.627640 0.317674
 H 5.015457 0.269022 -0.771439
 H 6.466880 0.240613 0.227108