17
charge = 0
 C 0.813521 -0.066634 -0.475671
 N 2.251708 -0.202560 -0.382941
 C 2.971269 0.901455 -0.982859
 C 4.463106 0.792748 -0.722036
 C 4.812318 0.856379 0.766829
 C 4.519336 2.157443 1.347571
 N 4.281472 3.194041 1.785163
 H 0.331382 -0.951697 -0.056572
 H 0.443457 0.074211 -1.504354
 H 0.491337 0.795992 0.113096
 H 2.539949 -1.069701 -0.820825
 H 2.593400 1.829309 -0.538654
 H 2.798580 0.986431 -2.069531
 H 4.987433 1.586006 -1.260704
 H 4.837898 -0.158092 -1.115814
 H 5.872449 0.643356 0.927606
 H 4.231986 0.104114 1.307897