17
charge = 0
 C 2.136072 -0.806573 0.276462
 N 1.860945 0.362089 -0.519172
 C 2.880336 1.228098 -0.828223
 C 2.471937 2.450527 -1.552423
 C 1.426670 2.536183 -2.367968
 N 4.079751 0.927051 -0.511979
 C 5.161607 1.780326 -0.935656
 H 1.212532 -1.373114 0.401180
 H 2.547433 -0.556762 1.261402
 H 2.872004 -1.431532 -0.230284
 H 0.960992 0.792086 -0.392198
 H 3.107259 3.317727 -1.404282
 H 0.796054 1.678567 -2.576900
 H 1.183503 3.463145 -2.874322
 H 6.109176 1.288379 -0.709618
 H 5.166498 2.741492 -0.402807
 H 5.152139 1.998099 -2.011003