17
charge = 0
 C 0.854429 -0.513097 0.498289
 N 2.272690 -0.326255 0.333895
 C 2.937311 0.096066 1.550428
 C 2.713569 0.133846 -0.898376
 N 1.975521 0.516137 -1.870363
 C 4.165997 0.080655 -1.180437
 C 5.020949 -0.803472 -0.681314
 H 0.678372 -1.075242 1.417242
 H 0.448249 -1.088964 -0.335140
 H 0.300057 0.435492 0.573592
 H 2.458026 0.990225 1.974322
 H 3.979337 0.331356 1.354026
 H 2.893747 -0.698494 2.300561
 H 0.988987 0.521245 -1.623531
 H 4.482331 0.784831 -1.941940
 H 4.714467 -1.550062 0.043014
 H 6.055051 -0.822369 -1.004568