15
charge = 0
 C 1.005645 0.416943 -0.117267
 N 2.373852 -0.007826 0.055297
 C 3.075832 0.533623 1.187757
 C 3.117059 -0.543027 -0.968959
 N 4.390293 -0.662123 -1.023501
 C 2.367415 -1.066171 -2.088002
 C 1.779602 -1.512632 -3.034342
 H 0.426197 0.178979 0.778661
 H 0.561236 -0.103425 -0.962834
 H 0.932180 1.497340 -0.298608
 H 2.355514 0.755009 1.975243
 H 3.617695 1.459285 0.948038
 H 3.791169 -0.192460 1.582685
 H 4.842236 -0.244940 -0.214002
 H 1.272585 -1.913372 -3.880375