17
charge = 0
 C 2.664653 0.201473 -0.997375
 N 2.361924 -0.733716 0.067255
 C 2.902501 -0.357668 1.361624
 C 2.362951 -1.299604 2.436760
 N 2.800463 -0.880021 3.752684
 C 4.372095 -0.324554 1.395009
 C 5.574265 -0.342114 1.396305
 H 2.240607 -0.169686 -1.932095
 H 3.739651 0.378765 -1.148183
 H 2.192268 1.163031 -0.779277
 H 2.707078 -1.654481 -0.177574
 H 2.538316 0.648899 1.598108
 H 2.654110 -2.328363 2.166734
 H 1.273301 -1.246533 2.386508
 H 3.805962 -0.974509 3.836107
 H 2.380881 -1.457012 4.469334
 H 6.638824 -0.343775 1.395174