17
charge = 0
 C 1.248168 -0.011693 0.216500
 N 2.689252 -0.082801 0.093053
 C 3.138038 -1.216445 -0.682362
 C 4.641921 -1.121572 -0.976245
 N 5.502587 -1.015402 0.193006
 C 5.048210 -2.261889 -1.793561
 C 5.342390 -3.219199 -2.454947
 H 0.975886 0.822075 0.866541
 H 0.787049 -0.928293 0.619362
 H 0.805239 0.176717 -0.764963
 H 3.098305 -0.128560 1.017918
 H 2.599293 -1.216894 -1.635043
 H 2.927957 -2.187937 -0.200029
 H 4.796845 -0.207967 -1.561868
 H 5.378680 -1.808506 0.810896
 H 5.301544 -0.164782 0.702405
 H 5.619136 -4.059961 -3.045871