17
charge = 0
 C 1.396506 -0.092174 -0.700278
 N 2.750638 -0.232869 -1.160992
 C 3.472295 -1.094987 -0.587754
 N 4.749926 -1.412466 -0.997490
 C 5.893808 -1.412789 -0.119920
 C 5.801093 -0.461205 -1.265496
 C 5.612352 1.005965 -1.022930
 H 0.703430 -0.294778 -1.522597
 H 1.217423 0.940532 -0.386097
 H 1.141862 -0.758884 0.138054
 H 3.113433 -1.727480 0.238315
 H 6.535585 -2.286456 -0.174209
 H 5.772589 -0.987143 0.873507
 H 6.376235 -0.708135 -2.155106
 H 5.098659 1.191672 -0.078754
 H 5.016226 1.458375 -1.816830
 H 6.587028 1.499610 -0.990213