17
charge = 0
 C 0.591891 -0.625760 0.882133
 N 1.969100 -0.450491 0.513240
 C 2.847144 -0.948908 1.273683
 N 4.188712 -0.781202 1.068321
 C 5.140898 -1.679885 1.624566
 C 6.430623 -1.109387 2.122218
 C 5.409465 -1.606458 3.097063
 H 0.045020 -1.108333 0.066158
 H 0.118820 0.348337 1.043805
 H 0.451560 -1.228026 1.793557
 H 2.611497 -1.528033 2.177916
 H 4.418779 -0.359126 0.180578
 H 5.195387 -2.671308 1.176670
 H 6.552607 -0.037186 2.035551
 H 7.332392 -1.689081 1.973306
 H 4.856777 -0.864687 3.659001
 H 5.601717 -2.532655 3.623153