17
charge = 0
 C 1.014442 -0.046732 0.107432
 N 2.443562 0.090542 0.158660
 C 3.139507 -0.888854 -0.229401
 N 4.512719 -0.896824 -0.235424
 C 5.248034 0.256171 0.218607
 C 5.191806 -2.011064 -0.676353
 C 6.516019 -2.159103 -0.737341
 H 0.587481 0.736536 -0.526304
 H 0.590913 0.091388 1.106925
 H 0.676987 -1.021464 -0.276883
 H 2.706717 -1.827771 -0.599217
 H 4.531703 1.016081 0.520720
 H 5.881650 0.644046 -0.584471
 H 5.885582 -0.009004 1.067172
 H 4.537765 -2.817580 -0.993412
 H 7.210709 -1.387428 -0.434286
 H 6.927201 -3.088330 -1.104814