19
charge = 0
 C 1.734584 -0.725792 -0.494998
 N 3.171450 -0.583200 -0.370672
 C 3.830685 -1.017567 -1.588986
 N 3.443965 0.777370 -0.110579
 C 4.568340 1.043375 0.426750
 C 5.596468 0.037215 0.836019
 C 4.870635 2.482772 0.690081
 H 1.495440 -1.780904 -0.642307
 H 1.327257 -0.143025 -1.335385
 H 1.256987 -0.386519 0.423724
 H 3.544737 -2.051081 -1.793421
 H 4.914533 -0.983124 -1.477810
 H 3.548037 -0.396493 -2.454013
 H 5.138702 -0.945900 0.951173
 H 6.069490 0.342968 1.772104
 H 6.393545 -0.036296 0.088727
 H 4.039874 3.108429 0.367306
 H 5.777391 2.790742 0.159356
 H 5.057890 2.645938 1.756223