17
charge = 0
 C 0.697037 1.243861 0.481235
 N 1.886239 1.338144 -0.318448
 C 2.936084 2.239866 0.052360
 N 1.955633 0.567394 -1.386444
 C 2.987474 0.589128 -2.159262
 C 3.017087 -0.272032 -3.315042
 C 4.027633 -0.336636 -4.184887
 H 0.923211 0.922164 1.504922
 H 0.044515 0.506771 0.018317
 H 0.167218 2.202678 0.531645
 H 2.648109 2.762529 0.963320
 H 3.123307 2.985309 -0.731983
 H 3.877899 1.707178 0.239885
 H 3.849449 1.233880 -1.980402
 H 2.137067 -0.895075 -3.451172
 H 4.916048 0.276222 -4.068709
 H 3.997602 -1.002671 -5.037736