17
charge = 0
 C 0.816234 0.091239 0.126019
 N 2.247542 0.013157 0.026255
 C 3.057657 0.609443 0.960707
 N 2.672729 1.162633 2.049516
 C 4.505980 0.576231 0.694578
 C 5.129174 -0.192307 -0.194912
 C 6.601023 -0.204617 -0.416184
 H 0.372072 -0.414625 -0.730987
 H 0.444282 1.124527 0.149664
 H 0.464709 -0.417063 1.028308
 H 2.628796 -0.051804 -0.901246
 H 1.659743 1.144058 2.144991
 H 5.072273 1.239729 1.340262
 H 4.552322 -0.891151 -0.798815
 H 7.109115 0.508527 0.234713
 H 6.844552 0.043152 -1.454479
 H 7.016509 -1.199818 -0.228171