15
charge = 0
 C 2.910231 -0.251729 1.217427
 N 2.301682 0.157201 -0.024480
 C 2.953636 0.839394 -1.024313
 N 2.406928 1.459241 -2.000939
 C 4.392162 0.799141 -0.963099
 C 5.594140 0.781606 -0.925840
 C 7.042131 0.775379 -0.908131
 H 2.298780 -1.031323 1.674610
 H 3.022819 0.570119 1.935384
 H 3.897114 -0.669150 1.020719
 H 1.306620 0.309083 -0.002854
 H 1.389703 1.422783 -1.931813
 H 7.426356 0.406946 0.046005
 H 7.433921 1.783066 -1.067181
 H 7.434217 0.134623 -1.702064