17
charge = 0
 C 0.605898 -0.458828 -1.010820
 N 2.006589 -0.356842 -0.715192
 C 2.853545 -1.422158 -0.815717
 N 2.535795 -2.634150 -1.057670
 C 4.304708 -1.079389 -0.555693
 C 4.786385 0.095706 -1.342958
 C 5.204392 1.240850 -0.818429
 H 0.143311 0.520421 -0.891987
 H 0.108467 -1.148379 -0.321467
 H 0.418504 -0.807589 -2.034480
 H 2.430824 0.555342 -0.729709
 H 1.532346 -2.740241 -1.195420
 H 4.876598 -1.975316 -0.803375
 H 4.431066 -0.883981 0.514472
 H 4.774897 -0.019238 -2.425466
 H 5.237811 1.390854 0.256841
 H 5.544774 2.060647 -1.440610