15
charge = 0
 C 1.092983 -0.176233 0.124035
 N 2.511546 -0.210544 -0.092433
 C 3.069394 0.179164 -1.268817
 N 2.487905 0.719318 -2.266190
 C 4.577363 0.006229 -1.355757
 C 5.135783 -1.034601 -0.511790
 C 5.578852 -1.893471 0.201553
 H 0.875037 -0.560441 1.119764
 H 0.545389 -0.782201 -0.608604
 H 0.712997 0.848783 0.070430
 H 3.074869 -0.797047 0.501047
 H 1.489256 0.831655 -2.107718
 H 5.035112 0.966390 -1.093959
 H 4.818344 -0.177210 -2.404187
 H 5.989173 -2.656811 0.819736