14
charge = 0
 C 0.992776 0.164885 -0.076545
 N 2.390996 -0.063295 0.169832
 C 2.703995 -0.916285 1.047334
 N 4.001008 -1.151458 1.407756
 C 5.050356 -0.537997 0.633492
 C 6.349789 -0.774630 1.246358
 N 7.376163 -0.979320 1.720330
 H 0.770887 -0.000267 -1.134634
 H 0.741009 1.207289 0.140163
 H 0.329882 -0.478929 0.520769
 H 1.976260 -1.512470 1.613432
 H 4.207324 -2.027916 1.854870
 H 4.863283 0.537740 0.577286
 H 5.075563 -0.897746 -0.404032