14
charge = 0
 C 0.999135 0.227469 -0.109230
 N 2.432123 0.250065 -0.002568
 C 3.087528 1.271511 0.606226
 N 2.601229 2.354181 1.065991
 C 4.600708 1.128534 0.682454
 C 5.080114 -0.240439 0.629866
 N 5.416841 -1.338247 0.565525
 H 0.695322 -0.691476 -0.608102
 H 0.637614 1.070313 -0.706122
 H 0.512333 0.265897 0.872440
 H 2.932613 -0.610012 -0.151557
 H 1.592139 2.401046 0.948619
 H 4.934819 1.607288 1.603466
 H 5.042982 1.684470 -0.149619