17
charge = 0
 C 2.451242 -0.279047 -1.070683
 N 3.240562 -0.470651 0.121250
 N 3.689779 0.681670 0.677389
 C 4.738013 0.653163 1.393319
 C 5.277692 1.858252 2.048882
 C 5.872032 2.967585 1.208752
 C 4.578088 3.173365 1.923746
 H 2.044440 -1.243687 -1.379568
 H 3.015738 0.152137 -1.909269
 H 1.619780 0.387546 -0.839647
 H 3.955323 -1.186681 0.022149
 H 5.297112 -0.281592 1.536446
 H 5.789751 1.661060 2.984891
 H 5.834863 2.831286 0.134952
 H 6.758903 3.466995 1.579656
 H 3.671648 3.175744 1.332812
 H 4.568524 3.821054 2.791334