15
charge = 0
 C 1.398004 0.236727 -2.480773
 N 2.561676 0.708617 -2.298709
 N 2.933465 1.087498 -1.062621
 C 4.360814 1.133565 -0.837769
 C 5.003867 2.262098 -1.641303
 C 6.439272 2.330705 -1.435949
 C 7.624245 2.368658 -1.246034
 H 1.105021 -0.019172 -3.491516
 H 0.678826 0.089146 -1.668197
 H 2.399173 0.674550 -0.303921
 H 4.849383 0.183734 -1.090049
 H 4.514191 1.311008 0.228775
 H 4.539696 3.212177 -1.358998
 H 4.785884 2.105516 -2.701413
 H 8.675603 2.409172 -1.086822