15
charge = 0
 C 1.384315 -0.430179 0.213763
 N 2.820768 -0.462146 0.095375
 N 3.322626 0.180431 -0.961386
 C 4.576622 0.473227 -0.967675
 C 5.510448 0.161241 0.164933
 C 5.099238 1.110790 -2.125925
 C 5.608957 1.654435 -3.071362
 H 1.078376 -1.137175 0.986572
 H 0.947849 -0.739630 -0.735571
 H 0.995241 0.564213 0.466190
 H 3.330882 -0.382107 0.967786
 H 5.518173 -0.914603 0.372694
 H 5.206610 0.673817 1.086324
 H 6.524742 0.475408 -0.070872
 H 6.037563 2.134270 -3.918746