19
charge = 0
 C 2.255659 0.937166 1.564782
 N 3.172144 0.506194 0.555135
 N 3.717824 -0.702318 0.647687
 C 4.536444 -1.105021 -0.239287
 C 5.168771 -2.457817 -0.167038
 C 4.779801 -3.305378 -1.376263
 C 6.687151 -2.343083 -0.051903
 H 1.919451 1.944977 1.316848
 H 2.722774 0.968297 2.555469
 H 1.374285 0.288646 1.621344
 H 3.407294 1.108391 -0.220183
 H 4.806552 -0.465583 -1.093635
 H 4.779961 -2.933571 0.738636
 H 5.114931 -2.834896 -2.306291
 H 3.697033 -3.434233 -1.436432
 H 5.240284 -4.295649 -1.323240
 H 7.106661 -1.830039 -0.923347
 H 7.150278 -3.332018 0.002975
 H 6.974302 -1.780775 0.839141