17
charge = 0
 C 3.796737 -1.366764 0.961014
 N 4.441602 -0.657882 -0.116905
 N 4.313105 0.686830 -0.053916
 C 4.390642 1.366364 -1.123642
 C 4.329101 2.859880 -1.098419
 C 3.157225 3.387130 -1.868009
 C 3.238498 4.154093 -2.946083
 H 4.066099 -2.422506 0.897025
 H 2.701602 -1.279298 0.951966
 H 4.163793 -0.973179 1.909183
 H 4.259405 -1.052161 -1.036131
 H 4.503982 0.880629 -2.102464
 H 5.252063 3.278010 -1.517197
 H 4.267638 3.169314 -0.050818
 H 2.178275 3.089325 -1.497207
 H 4.198013 4.468525 -3.346015
 H 2.352230 4.501491 -3.464383