12
charge = 0
 C 0.918048 -1.762898 -1.368535
 N 2.180994 -1.850549 -1.451492
 N 2.923658 -1.059736 -0.667383
 C 4.283277 -1.100088 -0.703625
 C 5.031038 -1.895179 -1.487860
 C 6.440375 -1.840142 -1.429563
 N 7.594039 -1.807692 -1.394299
 H 0.325963 -2.406286 -2.006716
 H 0.406537 -1.074113 -0.689186
 H 2.468174 -0.416147 -0.032516
 H 4.751596 -0.405748 -0.015697
 H 4.572262 -2.591412 -2.177639