14
charge = 0
 C 1.214227 -0.154744 0.503774
 N 2.648822 -0.247004 0.402354
 N 3.138270 -0.754901 -0.712343
 C 4.393096 -0.613944 -0.967442
 C 5.367239 0.119492 -0.098318
 C 4.868782 -1.228750 -2.162364
 N 5.318036 -1.697629 -3.115345
 H 0.942597 0.001761 1.548489
 H 0.780121 -1.094396 0.164511
 H 0.798412 0.660869 -0.099148
 H 3.190984 0.455445 0.891019
 H 5.410552 -0.330640 0.899754
 H 5.080311 1.171375 0.020918
 H 6.366940 0.095087 -0.527051