18
charge = 0
 N 1.011798 -0.076262 -0.077625
 C 2.432601 0.061808 -0.112896
 C 3.393941 -0.549163 -1.178429
 C 4.439425 -0.309666 -0.073084
 C 3.318244 -0.650572 0.930466
 C 4.473665 1.219186 0.000890
 C 2.950894 1.498567 -0.027352
 H 0.728517 -1.036221 -0.226991
 H 0.568502 0.492418 -0.788716
 H 3.516669 -0.026290 -2.131691
 H 3.193395 -1.610063 -1.344306
 H 5.391650 -0.837418 -0.062659
 H 3.366205 -0.225300 1.936343
 H 3.114344 -1.722773 0.977392
 H 5.000505 1.661436 -0.847898
 H 4.949251 1.578563 0.916253
 H 2.642835 2.091521 -0.893549
 H 2.584858 1.997238 0.872645