17
charge = 0
 N 1.067294 -0.146481 0.081136
 C 2.483573 0.000715 0.042715
 C 3.482459 -0.606947 -0.982564
 N 4.517465 -0.412703 0.082190
 C 3.409482 -0.703703 1.050820
 C 4.526403 1.069555 0.152630
 C 3.018716 1.427660 0.127155
 H 0.781628 -1.099735 -0.101084
 H 0.606129 0.455918 -0.588321
 H 3.677513 -0.083609 -1.923407
 H 3.321327 -1.672240 -1.162475
 H 3.530491 -0.274438 2.048958
 H 3.242848 -1.781100 1.116181
 H 5.080788 1.470984 -0.697415
 H 5.027013 1.387792 1.068446
 H 2.730188 2.027686 -0.740593
 H 2.672105 1.936025 1.029328