17
charge = 0
 N 0.754618 0.099662 -0.204271
 C 2.154457 0.102048 0.081307
 C 3.160932 -0.856429 -0.520082
 C 2.712392 -1.666389 -1.719124
 C 2.759419 -0.667871 -2.888720
 N 2.756277 0.676461 -2.308316
 C 3.148582 0.594123 -0.930611
 H 0.294829 -0.695911 0.221621
 H 0.580588 0.047371 -1.199876
 H 2.367210 0.403219 1.102739
 H 3.948692 -1.243591 0.114578
 H 1.701837 -2.064773 -1.574201
 H 3.371652 -2.519771 -1.888138
 H 1.926996 -0.788704 -3.587396
 H 3.681992 -0.813748 -3.462390
 H 1.881141 1.163166 -2.443040
 H 3.929078 1.274238 -0.605301