17
charge = 0
 N 1.130543 -0.238740 0.249811
 C 2.532273 -0.265865 -0.050411
 C 3.081858 -0.534803 -1.425115
 C 3.140840 0.850428 -0.830493
 C 4.443951 1.438965 -0.428327
 C 4.914110 2.697978 -1.036685
 N 4.488579 2.664746 0.361413
 H 0.745219 -1.175934 0.249769
 H 0.622509 0.292485 -0.446254
 H 3.130421 -0.633284 0.778274
 H 2.371804 -0.706475 -2.225689
 H 4.012664 -1.083465 -1.517979
 H 2.435269 1.569839 -1.243296
 H 5.192646 0.708633 -0.128142
 H 4.264359 3.168702 -1.768993
 H 5.973397 2.873744 -1.190725
 H 3.553037 3.046766 0.456662