16
charge = 0
 N 0.898464 0.118831 -0.050745
 C 2.328097 0.075776 0.018800
 C 3.171855 -0.863289 -0.808385
 C 3.143392 0.610288 -1.104662
 C 4.370586 1.451890 -0.842591
 C 4.074374 2.867728 -0.684582
 C 3.816735 4.033842 -0.563409
 H 0.488758 -0.737819 0.300687
 H 0.580703 0.243723 -1.002698
 H 2.708649 0.293520 1.013020
 H 2.658206 -1.525099 -1.495798
 H 4.072530 -1.277039 -0.367577
 H 2.584706 0.907737 -1.987614
 H 5.086525 1.325660 -1.663040
 H 4.874582 1.087587 0.059477
 H 3.586747 5.066656 -0.450682