17
charge = 0
 N 1.118531 -0.355618 0.347476
 C 2.530428 -0.364146 0.096979
 C 3.136619 -0.544698 -1.274060
 C 3.165769 0.791109 -0.588204
 N 4.421135 1.263649 -0.099195
 C 4.995926 2.393902 -0.800473
 C 4.408853 2.559318 0.548507
 H 0.733274 -1.288097 0.254575
 H 0.636503 0.232219 -0.320868
 H 3.110988 -0.772616 0.917094
 H 2.462161 -0.663637 -2.114181
 H 4.078113 -1.074759 -1.350567
 H 2.482834 1.553190 -0.978318
 H 4.437911 2.804297 -1.638504
 H 6.072308 2.371985 -0.931759
 H 3.456990 3.079839 0.616764
 H 5.049738 2.659161 1.417646