15
charge = 0
 N 1.606848 0.165601 1.061725
 C 2.388416 -0.018622 0.077512
 C 2.968862 -1.308482 -0.481358
 C 4.117392 -0.859049 -1.351580
 C 5.175528 0.011537 -0.729974
 C 4.017295 0.631578 -1.457424
 N 2.884458 1.015441 -0.679375
 H 1.334384 -0.722630 1.470872
 H 2.206631 -1.821787 -1.075260
 H 3.262193 -1.976856 0.331051
 H 4.385475 -1.450843 -2.216745
 H 6.145330 0.025470 -1.212610
 H 5.197242 0.109647 0.350084
 H 4.166091 1.154754 -2.393784
 H 2.818144 1.940351 -0.284323