17
charge = 0
 N 1.148386 0.084762 0.545586
 C 2.532924 -0.093534 0.122080
 C 2.841401 -1.498003 -0.451090
 C 2.586672 -1.375809 -1.938412
 N 3.715256 -0.783693 -2.661444
 C 2.576653 0.062769 -2.295632
 C 2.819745 0.873869 -1.040000
 H 0.903933 -0.603727 1.248343
 H 0.525694 -0.072694 -0.240590
 H 3.164218 0.125566 0.987462
 H 2.209580 -2.255563 0.019020
 H 3.885001 -1.777947 -0.280919
 H 1.961805 -2.095713 -2.455478
 H 3.659082 -1.028654 -3.645116
 H 1.945261 0.449574 -3.088108
 H 2.167596 1.746136 -0.968411
 H 3.855903 1.218953 -1.021601