16
charge = 0
 N 0.911476 0.010615 0.089634
 C 2.352123 -0.052244 -0.004703
 C 3.121494 1.024573 0.806589
 C 4.191912 -0.026749 1.144065
 C 3.172395 -1.122035 0.791875
 C 2.744903 -0.050527 -1.408058
 C 3.081759 -0.072541 -2.560462
 H 0.615583 -0.156953 1.043588
 H 0.476671 -0.686143 -0.502463
 H 2.531415 1.294243 1.686113
 H 3.413365 1.931778 0.278740
 H 4.598350 -0.023093 2.155241
 H 5.017408 -0.003266 0.431397
 H 2.598378 -1.433441 1.668813
 H 3.513218 -2.004409 0.249683
 H 3.375629 -0.082409 -3.583273