18
charge = 0
 N 1.025457 0.039751 -0.309401
 C 2.417974 0.002718 0.044567
 C 3.072518 0.992076 1.038395
 C 3.923859 -0.177847 1.564494
 C 2.883318 -1.145287 0.971645
 C 3.266969 -2.443556 0.364495
 C 4.461987 -3.014210 0.443710
 H 0.829866 0.774962 -0.976842
 H 0.449206 0.207403 0.506910
 H 3.005711 -0.031322 -0.878199
 H 2.343079 1.320573 1.784922
 H 3.584532 1.867816 0.635440
 H 4.115376 -0.231927 2.636233
 H 4.875523 -0.247635 1.032786
 H 2.082886 -1.308907 1.706673
 H 2.477292 -2.940261 -0.197126
 H 5.277139 -2.558727 0.996734
 H 4.667518 -3.963020 -0.038148