13
charge = 0
 N 1.170150 -0.304581 0.287920
 C 2.374514 0.081436 0.254592
 C 2.982137 1.324039 -0.252970
 C 4.310527 1.236264 -0.161027
 C 4.675895 -0.065432 0.435540
 C 4.282992 -1.282982 -0.320161
 N 3.428620 -0.756371 0.740751
 H 0.563691 0.407785 -0.112843
 H 2.411858 2.133442 -0.689539
 H 5.031165 1.986465 -0.460501
 H 5.467003 -0.123422 1.176084
 H 4.755740 -2.233015 -0.095836
 H 3.953419 -1.147527 -1.345929