18
charge = 0
 N 0.974021 0.024437 -0.140562
 C 2.395411 0.069078 0.131470
 C 2.930062 1.212467 1.003951
 C 4.326098 0.739870 1.399015
 C 4.202089 -0.767789 1.487633
 C 5.103165 -1.587748 2.011006
 C 2.884008 -1.171900 0.877653
 H 0.679582 0.845740 -0.654651
 H 0.451355 0.015792 0.728688
 H 2.908245 0.112294 -0.837882
 H 2.292384 1.302152 1.891915
 H 2.922486 2.178449 0.493292
 H 4.697431 1.184807 2.324485
 H 5.045392 0.996916 0.612757
 H 6.022767 -1.213737 2.448786
 H 4.955530 -2.662312 2.020975
 H 2.164169 -1.402904 1.674931
 H 2.950105 -2.057322 0.243539