15
charge = 0
 N 0.777338 0.136100 -0.001920
 C 2.050296 0.021589 -0.000836
 C 2.780062 -1.300656 0.002430
 C 4.267606 -1.212340 0.003025
 C 4.920981 -0.060696 0.001037
 C 4.239120 1.258791 -0.001999
 N 2.807180 1.149602 -0.002673
 H 0.338668 -0.779234 -0.000292
 H 2.437760 -1.871760 -0.868522
 H 2.436852 -1.867950 0.875515
 H 4.819840 -2.147304 0.005218
 H 6.005545 -0.038285 0.001577
 H 4.575597 1.830040 -0.880014
 H 4.574525 1.833517 0.874159
 H 2.265840 1.999076 -0.004806