17
charge = 0
 N 1.082246 0.252062 0.260419
 C 2.493829 -0.026654 0.044010
 C 2.882991 -1.483610 -0.283848
 C 2.954090 -1.533339 -1.807748
 N 3.424705 -0.202060 -2.230318
 C 2.338502 0.747843 -2.423111
 C 3.071676 0.726838 -1.146250
 H 0.746910 -0.253331 1.071694
 H 0.522948 -0.051449 -0.527159
 H 3.010799 0.300686 0.949678
 H 2.189923 -2.209870 0.148187
 H 3.876557 -1.689158 0.125827
 H 1.976648 -1.759167 -2.250514
 H 3.652792 -2.291169 -2.167325
 H 1.323842 0.358428 -2.454882
 H 2.529580 1.539659 -3.140477
 H 3.792872 1.512093 -0.944693