17
charge = 0
 N 1.099741 0.485133 0.053563
 C 2.506040 0.201531 0.032564
 C 3.355146 0.983119 1.067982
 N 4.156887 -0.227285 1.284410
 C 3.075868 -1.062443 0.752513
 C 3.081425 0.326852 -1.340759
 C 2.441231 0.768651 -2.414165
 H 0.715174 0.337759 0.977612
 H 0.599933 -0.114857 -0.591855
 H 2.730076 1.274364 1.924468
 H 3.906940 1.856610 0.712671
 H 4.435613 -0.411768 2.238466
 H 2.359735 -1.415953 1.508400
 H 3.398231 -1.907818 0.137228
 H 4.122624 0.022649 -1.414238
 H 1.413021 1.108653 -2.365858
 H 2.938806 0.824192 -3.375222