17
charge = 0
 N 1.306533 -0.294536 0.418132
 C 2.684689 -0.191826 0.056112
 C 3.260481 -0.736897 -1.229810
 N 2.426211 -1.487276 -2.114897
 C 3.103862 0.752458 -1.034845
 C 4.238876 1.678942 -0.849214
 C 5.513616 1.416878 -1.108500
 H 1.043168 -1.237579 0.675357
 H 0.683116 0.039085 -0.302663
 H 3.349846 -0.233557 0.912754
 H 4.273030 -1.120229 -1.149341
 H 2.396918 -1.092733 -3.045205
 H 1.478125 -1.543262 -1.764385
 H 2.258410 1.181995 -1.571034
 H 3.977841 2.658748 -0.451937
 H 5.832565 0.461982 -1.512287
 H 6.285822 2.154226 -0.924136