17
charge = 0
 N 1.027900 0.310325 0.205765
 C 2.398116 -0.046947 -0.127543
 C 2.693179 -1.528612 -0.469922
 N 2.855110 -1.639499 -1.919357
 C 3.204155 -0.335311 -2.422305
 C 2.086745 0.642609 -2.620785
 C 2.904980 0.682332 -1.362417
 H 0.710234 -0.215211 1.011206
 H 0.400568 0.093095 -0.558868
 H 3.009892 0.252751 0.729123
 H 1.907756 -2.199286 -0.110854
 H 3.627297 -1.832387 0.018654
 H 2.019005 -1.993312 -2.362648
 H 4.093933 -0.263769 -3.039290
 H 1.072823 0.257381 -2.595942
 H 2.230341 1.457044 -3.321467
 H 3.547770 1.541616 -1.221251