17
charge = 0
 N 1.002011 -0.116416 -0.018781
 C 2.435852 -0.054444 0.127920
 C 3.043974 1.034188 1.020392
 N 4.388107 0.532418 1.226496
 C 4.262845 -0.895965 1.504397
 C 3.028837 -1.302813 0.739013
 C 2.500573 -2.514746 0.667553
 H 0.643816 0.720018 -0.461104
 H 0.553532 -0.211523 0.884837
 H 2.869478 0.070122 -0.872752
 H 2.442659 1.107734 1.945648
 H 3.058270 2.017753 0.543195
 H 4.894512 1.027921 1.945995
 H 4.116249 -1.118414 2.573672
 H 5.155614 -1.436708 1.176608
 H 2.962560 -3.368040 1.152660
 H 1.584191 -2.679885 0.112861