17
charge = 0
 N 1.187674 -0.132606 0.128724
 C 2.574233 0.178748 -0.156197
 C 2.770507 1.542988 -0.833797
 N 4.029379 1.454624 -1.559031
 C 4.050086 0.093612 -2.091095
 C 3.219248 -0.756661 -1.152735
 C 3.069730 -2.071398 -1.207228
 H 0.879255 0.340520 0.968862
 H 1.065198 -1.124753 0.284961
 H 3.208174 0.166026 0.749462
 H 2.779024 2.382636 -0.136143
 H 1.946889 1.695225 -1.539896
 H 4.797177 1.569050 -0.908372
 H 5.072797 -0.270142 -2.208825
 H 3.589936 0.090065 -3.086807
 H 3.568315 -2.669129 -1.962819
 H 2.443766 -2.612795 -0.504756