15
charge = 0
 N 1.154372 0.081287 0.004502
 C 2.422053 0.047301 -0.007799
 N 3.341469 -0.973528 0.033674
 C 4.640644 -0.300334 -0.014975
 C 4.390034 0.741281 -1.125644
 C 3.352649 1.245750 -0.078765
 C 4.413693 0.848286 0.990255
 H 0.757364 -0.856249 0.056316
 H 3.171477 -1.958742 0.084884
 H 5.494056 -0.974866 0.009597
 H 4.016298 0.371633 -2.081564
 H 5.214826 1.441779 -1.261170
 H 2.872223 2.218285 -0.122577
 H 4.061799 0.577370 1.986686
 H 5.240515 1.557947 1.035981