11
charge = 0
 N 1.099404 0.085590 -0.095798
 C 2.247849 0.036288 -0.054322
 C 3.677831 -0.029816 -0.017184
 C 4.415868 -0.756222 -1.101631
 C 4.454631 0.742442 -1.071887
 C 5.653054 1.412874 -0.665824
 N 6.620154 1.940815 -0.335586
 H 4.107058 -0.049693 0.977199
 H 3.830982 -1.212572 -1.888425
 H 5.311073 -1.287790 -0.809316
 H 3.865595 1.270883 -1.811635