14
charge = 0
 N 0.968589 -0.060132 0.018206
 C 2.120122 -0.096015 -0.024951
 C 3.538185 -0.096692 -0.079169
 C 4.305145 -1.187331 -0.153190
 C 5.758283 -0.838053 -0.135186
 C 5.761747 0.679305 -0.384678
 C 4.357841 1.167428 0.004754
 H 3.926786 -2.201900 -0.180804
 H 6.334312 -1.393264 -0.880120
 H 6.187803 -1.098354 0.841064
 H 5.925063 0.867308 -1.448338
 H 6.551476 1.195918 0.161597
 H 3.981627 1.953595 -0.652930
 H 4.322211 1.564078 1.025753