12
charge = 0
 N 1.023311 0.025601 -0.085167
 C 2.177054 0.051361 -0.084177
 C 3.588312 0.050119 -0.082986
 C 4.399985 1.131071 -0.079540
 C 5.781008 0.688668 -0.079504
 C 5.814675 -0.655097 -0.082906
 C 4.426490 -1.191462 -0.085447
 H 4.070489 2.161357 -0.077189
 H 6.635791 1.351250 -0.077092
 H 6.698144 -1.278450 -0.083751
 H 4.222430 -1.820992 0.789356
 H 4.223912 -1.816515 -0.963797