12
charge = 0
 N 1.031900 0.040383 0.085902
 C 2.183673 0.010842 0.087098
 C 3.603866 -0.000233 0.088334
 C 4.387513 -1.097799 0.089614
 C 5.810832 -0.666223 0.090627
 C 5.728589 0.823278 0.089738
 C 4.443912 1.201290 0.088412
 H 4.049183 -2.123947 0.089879
 H 6.351421 -1.053303 -0.783379
 H 6.349888 -1.052344 0.966004
 H 6.589783 1.476499 0.090134
 H 4.056940 2.210746 0.087526