14
charge = 0
 N 0.963244 0.083663 0.183048
 C 2.111135 0.084364 0.108599
 C 3.564244 0.085162 0.012437
 C 4.068323 -1.150478 -0.779739
 C 4.439705 -0.576552 -2.113091
 C 4.439009 0.749723 -2.112488
 C 4.067039 1.322049 -0.778613
 H 3.948935 0.084897 1.034630
 H 3.306812 -1.930991 -0.843768
 H 4.938257 -1.597681 -0.286090
 H 4.704722 -1.198598 -2.959459
 H 4.703379 1.372819 -2.958286
 H 3.304712 2.101824 -0.841928
 H 4.936505 1.769710 -0.284554