16
charge = 0
 N 4.107464 0.732189 0.539793
 C 2.778173 0.235972 0.882450
 C 2.218272 -0.790609 -0.051171
 C 1.930291 -2.076264 0.220200
 C 1.418865 -2.750496 -1.008743
 C 1.454880 -1.664783 -2.033092
 C 1.917738 -0.541962 -1.465186
 H 4.742052 -0.048935 0.420156
 H 4.084689 1.220685 -0.347284
 H 2.106246 1.099810 0.930963
 H 2.816659 -0.179721 1.893106
 H 2.042262 -2.565364 1.179395
 H 0.402966 -3.144341 -0.870807
 H 2.035731 -3.611347 -1.299499
 H 1.142138 -1.789670 -3.060953
 H 2.046984 0.413026 -1.961130