16
charge = 0
 N 2.419447 -1.628133 0.057082
 C 2.469706 -0.178069 0.148112
 C 2.953200 0.431382 -1.167819
 C 3.085878 1.922298 -1.141968
 C 2.375534 2.449006 -2.150664
 C 1.723341 1.371841 -2.891742
 C 2.042132 0.195578 -2.331022
 H 1.960984 -2.021144 0.868831
 H 3.355133 -2.015453 0.029679
 H 3.112791 0.193336 0.960522
 H 1.459192 0.189524 0.347650
 H 3.939302 -0.007855 -1.395716
 H 3.677766 2.463020 -0.415201
 H 2.290126 3.501729 -2.389265
 H 1.080052 1.517406 -3.750366
 H 1.707396 -0.788066 -2.627032