18
charge = 0
 N 3.130697 1.310461 0.645414
 C 2.513436 0.104673 0.114304
 C 2.618739 0.056954 -1.396656
 C 2.080501 -1.247001 -2.013685
 C 1.493061 -0.800452 -3.319079
 C 1.373619 0.520572 -3.381231
 C 1.861093 1.184624 -2.127231
 H 3.105133 1.309849 1.657204
 H 2.619891 2.130950 0.341712
 H 1.451606 -0.011083 0.393375
 H 3.042787 -0.755999 0.536748
 H 3.678057 0.148910 -1.657737
 H 1.303956 -1.700393 -1.380846
 H 2.862333 -2.003371 -2.130101
 H 1.172566 -1.490205 -4.091653
 H 0.940896 1.067700 -4.211176
 H 1.006603 1.546725 -1.535500
 H 2.494424 2.054896 -2.322452