15
charge = 0
 N 1.056463 -0.211866 0.937485
 C 2.121581 -0.147547 0.506131
 C 3.479872 -0.085581 -0.008110
 C 4.273636 1.102893 0.595601
 C 5.444676 0.431399 1.341809
 N 5.052190 -0.944170 1.603867
 C 4.305077 -1.332915 0.428616
 H 3.416186 -0.018995 -1.096890
 H 3.643266 1.669015 1.282163
 H 4.611209 1.789640 -0.181580
 H 5.708751 0.944004 2.267316
 H 6.336162 0.421417 0.706113
 H 4.450726 -0.982445 2.419113
 H 3.686147 -2.210137 0.614073
 H 5.007477 -1.575103 -0.375116