13
charge = 0
 N 0.905116 0.034757 0.098551
 C 2.055970 -0.022119 0.057387
 C 3.470815 -0.038622 0.002889
 C 4.249033 -1.118839 -0.058079
 C 5.689997 -0.707016 -0.026724
 N 5.676396 0.746338 -0.199518
 C 4.322638 1.211599 0.090139
 H 3.902534 -2.144192 -0.070279
 H 6.293820 -1.193042 -0.798222
 H 6.134141 -0.989076 0.939060
 H 5.896266 0.961415 -1.161659
 H 4.009420 1.992447 -0.606476
 H 4.251166 1.634060 1.100740