17
charge = 0
 N 2.320810 0.666157 1.374935
 C 2.394523 -0.105328 0.135828
 C 2.902641 -1.485270 0.380885
 C 2.302074 -2.636812 0.106152
 C 3.143923 -3.799228 0.539043
 N 4.426862 -3.207816 0.939951
 C 4.230086 -1.758603 1.040133
 H 1.956729 1.591515 1.183860
 H 3.246124 0.796659 1.765773
 H 3.033810 0.369562 -0.629045
 H 1.388657 -0.164947 -0.287603
 H 1.310809 -2.741330 -0.319667
 H 3.286018 -4.548160 -0.247424
 H 2.672281 -4.323004 1.383112
 H 5.109931 -3.395121 0.220954
 H 5.058659 -1.214426 0.570744
 H 4.202363 -1.441158 2.092769