19
charge = 0
 N 2.278670 -1.477572 0.251876
 C 2.273151 -0.062206 -0.084978
 C 2.824405 0.759381 1.054144
 C 2.802244 2.295328 0.919567
 C 2.340964 2.408014 2.386054
 N 3.418246 2.803601 3.268908
 C 1.967726 0.901200 2.332808
 H 1.917473 -2.031542 -0.514342
 H 1.674050 -1.648236 1.047068
 H 1.274008 0.330191 -0.343385
 H 2.904056 0.079122 -0.969652
 H 3.826065 0.391748 1.295301
 H 2.029902 2.628589 0.221309
 H 3.737380 2.802539 0.674383
 H 1.501564 3.084357 2.564150
 H 4.233932 2.219090 3.123311
 H 3.144639 2.689955 4.238076
 H 0.903355 0.754460 2.119536
 H 2.239452 0.300172 3.203866