15
charge = 0
 N 3.126883 0.288078 -1.267316
 C 2.659609 -0.226298 0.012613
 C 2.971416 0.723655 1.122027
 C 3.174420 2.076596 1.000898
 N 3.407749 2.580371 2.247806
 C 3.360418 1.579412 3.170144
 C 3.093476 0.412160 2.502094
 H 2.871631 -0.341330 -2.017486
 H 4.137639 0.357998 -1.261974
 H 3.070443 -1.214770 0.271826
 H 1.574049 -0.360646 -0.065637
 H 3.163715 2.702066 0.123636
 H 3.601433 3.543227 2.451159
 H 3.526053 1.771468 4.218052
 H 2.997366 -0.564186 2.953068