19
charge = 0
 N 1.086848 0.318872 -0.018316
 C 2.497810 -0.014889 -0.155583
 C 2.992327 -0.820107 1.024259
 C 2.702277 -0.229065 2.380724
 N 3.129493 1.161756 2.453736
 C 2.977531 -2.311011 0.925160
 C 4.279971 -1.568629 0.839628
 H 0.729925 0.681641 -0.893250
 H 0.994484 1.067043 0.660099
 H 3.137763 0.872355 -0.267387
 H 2.624859 -0.616749 -1.060810
 H 3.158320 -0.877181 3.145662
 H 1.621040 -0.257073 2.551289
 H 4.133426 1.229066 2.334389
 H 2.909976 1.556780 3.359146
 H 2.576754 -2.750136 0.019701
 H 2.778674 -2.882779 1.824572
 H 4.769838 -1.508638 -0.125772
 H 4.959905 -1.639457 1.681354