10
charge = 0
 N 1.030461 -0.054739 0.085556
 C 2.177015 -0.054662 0.009857
 C 3.623807 -0.054575 -0.086898
 C 4.234730 1.073755 -0.866432
 N 5.023665 0.656572 -1.772589
 N 5.023835 -0.768791 -1.771166
 C 4.235027 -1.184332 -0.864146
 H 4.041906 -0.053479 0.931609
 H 4.066302 2.127430 -0.681950
 H 4.066852 -2.237668 -0.677531