12
charge = 0
 N 1.054602 -0.109351 -0.683817
 C 2.155942 -0.090671 -0.354725
 C 3.544216 -0.065302 0.065177
 C 4.025868 -1.353266 0.748316
 N 5.045027 -0.815924 1.648424
 N 4.694133 0.460715 2.009093
 C 3.867134 0.928372 1.165902
 H 4.161843 0.160887 -0.815317
 H 4.445919 -2.075505 0.049706
 H 3.194975 -1.816112 1.296392
 H 5.258166 -1.371760 2.463454
 H 3.513177 1.948497 1.214886