19
charge = 0
 N 2.560228 0.367700 1.506441
 C 2.444081 0.045517 0.093844
 C 2.994198 1.131254 -0.823429
 N 2.841670 0.791340 -2.229404
 C 2.519824 2.587283 -0.603522
 C 3.967281 3.057782 -0.839372
 C 4.435328 1.616789 -0.565954
 H 2.433536 -0.458822 2.075009
 H 1.847529 1.028976 1.786642
 H 1.410381 -0.174721 -0.225266
 H 3.024582 -0.866190 -0.091265
 H 1.865809 0.622613 -2.449780
 H 3.347771 -0.061552 -2.442635
 H 2.208781 2.765252 0.428005
 H 1.744234 2.949733 -1.281196
 H 4.349513 3.841202 -0.183828
 H 4.129646 3.346060 -1.877416
 H 4.703516 1.466603 0.480793
 H 5.208873 1.197911 -1.213145