12
charge = 0
 N 1.132397 -0.031001 0.358600
 C 2.279101 -0.033077 0.229765
 C 3.678662 0.058489 0.073583
 N 4.426638 -0.988099 -0.021768
 N 5.683813 -0.613074 -0.158697
 C 5.892821 0.828333 -0.166771
 C 4.454831 1.354843 0.000605
 H 6.386998 -1.321142 -0.245676
 H 6.349087 1.153772 -1.105779
 H 6.547097 1.134917 0.654045
 H 4.130503 1.969213 -0.841746
 H 4.326942 1.950016 0.907039