19
charge = 0
 N 1.035495 -0.734172 0.494576
 C 2.463346 -0.479656 0.370755
 C 3.078149 -1.379282 -0.687530
 C 4.546437 -1.133300 -0.893287
 C 5.559997 -1.748459 0.037851
 C 5.461083 -2.227991 -1.370020
 N 6.559520 -2.016952 -2.267000
 H 0.619008 -0.115700 1.179081
 H 0.875476 -1.680221 0.820591
 H 3.022638 -0.604570 1.311571
 H 2.592931 0.565164 0.068654
 H 2.530041 -1.239306 -1.625471
 H 2.929237 -2.427610 -0.396356
 H 4.801314 -0.140446 -1.257050
 H 5.201911 -2.394494 0.831195
 H 6.431523 -1.161236 0.305976
 H 4.991421 -3.199072 -1.504215
 H 7.148426 -1.258431 -1.948991
 H 6.231668 -1.779457 -3.195530