15
charge = 0
 N 3.596750 -2.340765 0.416654
 C 3.660141 -1.209932 0.217572
 C 3.764111 0.210713 -0.072162
 C 3.885182 0.485114 -1.575977
 C 4.377605 1.914399 -1.872045
 C 5.760589 1.278893 -2.098182
 N 5.097714 -0.026462 -2.215572
 H 4.636281 0.607119 0.458034
 H 2.880829 0.716991 0.330151
 H 2.961036 0.167183 -2.068352
 H 4.282564 2.645461 -1.068963
 H 3.946183 2.320215 -2.785888
 H 6.422512 1.384472 -1.229155
 H 6.310182 1.587407 -2.990499
 H 5.542509 -0.830198 -1.789818