12
charge = 0
 N 1.024271 0.078838 -0.030790
 C 2.180313 0.077070 -0.033884
 C 3.545475 0.075047 -0.039320
 C 4.753300 0.073509 -0.045539
 C 6.174861 0.071627 -0.057816
 C 6.910917 -0.660482 -1.158806
 C 6.913157 0.824696 -1.143062
 H 6.635202 0.060308 0.924209
 H 6.304354 -1.162403 -1.900767
 H 7.811004 -1.186353 -0.867964
 H 6.308308 1.344128 -1.874309
 H 7.814837 1.341604 -0.841261