19
charge = 0
 N 1.397937 -2.265009 -0.931091
 C 2.727056 -1.865109 -1.373952
 C 2.856625 -0.352599 -1.346515
 C 4.244784 0.169209 -1.698853
 C 4.680914 -0.120820 -3.108780
 C 6.111054 -0.126151 -3.465192
 N 5.347708 -1.373305 -3.455835
 H 1.313484 -3.273874 -0.926991
 H 0.698717 -1.919683 -1.578441
 H 2.988955 -2.238254 -2.374887
 H 3.453714 -2.296258 -0.675115
 H 2.573927 -0.003262 -0.348883
 H 2.125771 0.081392 -2.041461
 H 4.987883 -0.246041 -1.005129
 H 4.260421 1.254343 -1.546342
 H 3.978051 0.204558 -3.873819
 H 6.823584 0.051082 -2.664645
 H 6.435736 0.207366 -4.444806
 H 5.556491 -1.896503 -2.611254