15
charge = 0
 N 0.925897 0.003907 0.128081
 C 2.075132 -0.026844 0.126976
 C 3.528454 -0.046106 0.150205
 C 4.109181 0.930892 1.178002
 C 5.608906 0.884733 1.198213
 C 6.349481 1.165696 2.439922
 N 6.305126 -0.191129 1.897538
 H 3.892320 0.197419 -0.852570
 H 3.856702 -1.067743 0.363585
 H 3.717466 0.690790 2.171718
 H 3.768893 1.943674 0.942277
 H 6.084907 1.152758 0.257040
 H 5.768556 1.388179 3.329989
 H 7.320505 1.646145 2.397918
 H 5.643383 -0.751690 2.426217