17
charge = 0
 N 0.646026 0.007392 -0.523342
 C 2.067073 -0.238838 -0.386611
 C 2.479891 -1.668476 -0.164354
 C 1.665464 -2.696355 0.024113
 C 2.833316 0.340299 -1.567268
 C 2.241418 0.406198 -2.913255
 N 2.432685 1.620090 -2.119478
 H 0.184841 -0.011511 0.375526
 H 0.210634 -0.700466 -1.102219
 H 2.400444 0.333747 0.491431
 H 3.554778 -1.841140 -0.164983
 H 0.586566 -2.580430 0.044563
 H 2.049544 -3.698581 0.171341
 H 3.909814 0.208452 -1.489310
 H 1.226848 0.044961 -3.046341
 H 2.875335 0.317030 -3.788644
 H 1.534633 1.857808 -1.701659