17
charge = 0
 N 1.248579 -0.468845 -0.229769
 C 2.660052 -0.155371 -0.149290
 C 3.112519 0.845989 -1.176615
 C 2.272700 1.459800 -2.003559
 C 4.579665 1.079959 -1.176450
 C 5.182758 2.332954 -1.655815
 N 5.158344 2.041398 -0.223276
 H 0.970605 -1.051952 0.548106
 H 1.047670 -0.983389 -1.078802
 H 3.319791 -1.035918 -0.237379
 H 2.864607 0.257623 0.846144
 H 1.205054 1.290627 -1.933008
 H 2.628016 2.151089 -2.758045
 H 5.179842 0.174904 -1.251925
 H 4.523451 3.106504 -2.033607
 H 6.167649 2.312523 -2.109574
 H 4.401699 2.568206 0.204353