18
charge = 0
 N 1.043331 0.438708 -0.770534
 C 2.384620 -0.125348 -0.692678
 C 2.470926 -1.466018 0.051225
 C 2.036666 -1.345415 1.472319
 C 0.959448 -1.913314 1.998375
 C 2.947517 -0.162726 -2.082671
 C 3.504686 -1.198416 -2.693940
 H 0.625128 0.467197 0.152654
 H 0.454853 -0.158192 -1.341703
 H 2.989277 0.601439 -0.129638
 H 3.508943 -1.818291 0.023155
 H 1.857779 -2.209277 -0.469473
 H 2.660406 -0.717679 2.108232
 H 0.308881 -2.549431 1.405606
 H 0.695507 -1.775450 3.040680
 H 2.847468 0.780616 -2.614787
 H 3.618682 -2.166046 -2.217941
 H 3.875273 -1.111556 -3.708780