16
charge = 0
 N 0.943251 0.168768 -0.167394
 C 2.357981 -0.023766 0.112523
 C 2.700337 -0.248989 1.605336
 C 2.331060 0.928671 2.440454
 C 1.371934 0.944226 3.356770
 C 2.875237 -1.130515 -0.685272
 C 3.302629 -2.062999 -1.308199
 H 0.559564 0.838163 0.491160
 H 0.444712 -0.703723 -0.036149
 H 2.879484 0.886617 -0.211693
 H 3.775762 -0.441675 1.684557
 H 2.179384 -1.146456 1.951853
 H 2.892404 1.843245 2.252157
 H 0.790306 0.055242 3.581494
 H 1.144189 1.837884 3.926469
 H 3.681177 -2.881692 -1.873168