18
charge = 0
 N 0.580425 0.033018 0.079887
 C 2.022425 0.122672 -0.047074
 C 2.555190 1.510924 0.160721
 C 1.801457 2.516443 0.590271
 C 4.016308 1.688479 -0.166729
 C 4.290917 1.668793 -1.640006
 C 5.093776 0.814091 -2.258112
 H 0.282199 -0.931955 0.026403
 H 0.131199 0.527398 -0.681800
 H 2.409830 -0.243718 -1.011612
 H 2.472091 -0.526776 0.715655
 H 0.755179 2.368367 0.828065
 H 2.220190 3.506559 0.735035
 H 4.606781 0.901818 0.317944
 H 4.351038 2.645150 0.247400
 H 3.773696 2.430042 -2.221447
 H 5.624525 0.039569 -1.712360
 H 5.254993 0.859617 -3.329041