16
charge = 0
 N 2.901449 1.407969 0.188580
 C 2.496725 0.031074 -0.011354
 C 3.065364 -0.861212 1.103519
 C 2.578375 -2.276780 0.963423
 C 1.770688 -2.874313 1.825486
 C 4.524951 -0.815552 1.093531
 C 5.724876 -0.775014 1.053880
 H 2.499339 2.004672 -0.522523
 H 3.909537 1.486868 0.116135
 H 2.798157 -0.396985 -0.980200
 H 1.406536 -0.027184 0.046037
 H 2.716012 -0.452117 2.058134
 H 2.923903 -2.809665 0.080634
 H 1.420853 -2.368631 2.720168
 H 1.432895 -3.892339 1.670814
 H 6.788699 -0.747931 1.035508