14
charge = 0
 N 1.055559 0.107838 -0.222902
 C 2.480318 -0.039559 0.051971
 C 3.011474 -1.264681 -0.528575
 C 3.452014 -2.282812 -0.987987
 C 3.976065 -3.519264 -1.557787
 C 5.254139 -3.352073 -2.241038
 C 6.305344 -3.230900 -2.804316
 H 0.702485 0.938053 0.237021
 H 0.547982 -0.683778 0.152550
 H 2.734084 -0.033003 1.123856
 H 3.004225 0.812207 -0.394922
 H 3.244909 -3.929187 -2.264512
 H 4.089776 -4.271316 -0.768188
 H 7.237836 -3.116417 -3.304169