16
charge = 0
 N 0.776580 -0.130021 0.025294
 C 2.224552 -0.105191 -0.099801
 C 2.823556 0.885851 0.892266
 C 4.310775 0.867453 0.893359
 C 5.083946 1.916652 0.601998
 C 6.500816 1.887936 0.603424
 C 7.704502 1.897182 0.595174
 H 0.376713 -0.828793 -0.587949
 H 0.382542 0.761688 -0.250701
 H 2.585407 0.143130 -1.109883
 H 2.600437 -1.107733 0.129090
 H 2.445562 0.624980 1.887919
 H 2.463680 1.896245 0.668580
 H 4.790741 -0.076132 1.144736
 H 4.621750 2.868420 0.347471
 H 8.768541 1.895933 0.590723