11
charge = 0
 N 1.057931 0.143044 -0.064454
 C 2.393025 0.089019 -0.021132
 C 3.106064 -0.815678 0.710074
 C 2.442618 -1.788984 1.496962
 C 1.821153 -2.591067 2.145549
 C 4.524433 -0.772632 0.675007
 N 5.676926 -0.732622 0.642417
 H 0.584025 0.828874 -0.619230
 H 0.512196 -0.514990 0.467374
 H 2.922847 0.824139 -0.615513
 H 1.301213 -3.313264 2.729546