19
charge = 0
 N 0.671389 -1.901654 -0.669361
 C 2.112763 -2.031261 -0.522982
 C 2.832218 -1.063809 -1.453602
 C 4.310952 -1.068501 -1.258842
 C 5.209422 -1.383495 -2.184328
 C 6.686189 -1.375677 -1.970061
 N 7.253562 -2.675525 -2.306092
 H 0.189717 -2.520044 -0.028986
 H 0.387800 -2.170904 -1.604207
 H 2.492976 -3.048024 -0.708884
 H 2.369324 -1.785917 0.513195
 H 2.428662 -0.061709 -1.266655
 H 2.596891 -1.311683 -2.494761
 H 4.665297 -0.787534 -0.266027
 H 4.880577 -1.682942 -3.178380
 H 6.898724 -1.038905 -0.943563
 H 7.141375 -0.639680 -2.643871
 H 6.914047 -3.379825 -1.662444
 H 8.262704 -2.657510 -2.230349