19
charge = 0
 N 2.119808 -0.556363 4.235030
 C 2.740467 -0.105472 2.999240
 C 4.126637 0.443743 3.279678
 N 4.779040 0.886753 2.077549
 C 6.124056 1.457012 2.190846
 C 6.489257 0.778887 0.862714
 C 5.274794 -0.120705 1.131625
 H 1.234756 -1.008570 4.046400
 H 1.921732 0.233133 4.838245
 H 2.168606 0.659354 2.453187
 H 2.828891 -0.970057 2.332947
 H 4.713530 -0.327360 3.812631
 H 4.043866 1.304196 3.955509
 H 6.693791 1.031433 3.032712
 H 6.164127 2.548177 2.250918
 H 7.464658 0.300975 0.792102
 H 6.337270 1.435392 0.006263
 H 5.564894 -1.059487 1.631678
 H 4.606518 -0.354330 0.298814