19
charge = 0
 N 1.074167 0.317708 0.074270
 C 2.510423 0.154179 -0.099696
 C 3.028443 -0.934140 0.839423
 N 2.376056 -2.220448 0.653336
 C 4.551021 -1.079246 0.761913
 C 5.062757 -1.586277 -0.546941
 C 5.838635 -0.904259 -1.379013
 H 0.674791 0.866096 -0.675451
 H 0.872873 0.806738 0.938285
 H 3.083564 1.080711 0.064788
 H 2.698882 -0.154538 -1.132749
 H 2.798088 -0.612742 1.864911
 H 2.603742 -2.585099 -0.265956
 H 1.373929 -2.056857 0.637535
 H 4.851212 -1.774259 1.553326
 H 5.012468 -0.111390 0.980902
 H 4.784549 -2.604123 -0.815391
 H 6.160320 0.107908 -1.151519
 H 6.188282 -1.332382 -2.311565