19
charge = 0
 N 2.457243 0.343224 -1.235360
 C 2.186008 0.162355 0.186048
 C 2.796236 1.287935 0.998446
 N 4.220886 1.389956 0.752718
 C 4.888483 2.347035 1.615281
 C 6.349444 2.404142 1.317112
 C 7.012888 3.510878 1.014567
 H 1.802651 -0.185982 -1.795450
 H 3.378763 -0.011359 -1.459623
 H 2.556493 -0.796598 0.575364
 H 1.102786 0.178134 0.335324
 H 2.645608 1.079160 2.063379
 H 2.264287 2.227603 0.771210
 H 4.359428 1.674831 -0.210760
 H 4.746923 2.010276 2.650640
 H 4.458922 3.362066 1.553630
 H 6.869971 1.449469 1.350209
 H 6.512323 4.473234 0.962682
 H 8.078057 3.499341 0.814004