12
charge = 0
 N 1.767115 -1.227955 -0.962077
 C 2.799394 -0.752500 -0.796195
 C 4.120926 -0.173883 -0.590251
 N 4.450060 -0.140923 0.822950
 C 5.739361 0.446413 1.101722
 C 6.873579 -0.232111 0.453797
 N 7.718510 -0.799460 -0.081312
 H 4.106770 0.851853 -0.973931
 H 4.839545 -0.737728 -1.205738
 H 4.385648 -1.069637 1.221065
 H 5.905289 0.446656 2.181149
 H 5.740593 1.492815 0.781230