15
charge = 0
 N 1.515930 0.061607 -0.961338
 C 2.465264 0.114431 -0.112892
 N 3.033832 1.281603 0.282855
 C 4.123169 1.387895 1.251126
 C 4.399378 2.905040 1.351000
 C 3.403835 3.503177 0.395179
 C 2.672882 2.544662 -0.167427
 H 1.237420 -0.900620 -1.116187
 H 2.916194 -0.755008 0.379045
 H 5.000272 0.836509 0.901334
 H 3.821863 0.964481 2.213191
 H 5.430282 3.144382 1.073004
 H 4.259265 3.272127 2.372273
 H 3.303281 4.559989 0.199882
 H 1.875523 2.615335 -0.891944