17
charge = 0
 N 0.943863 -1.105687 -0.913903
 C 2.151355 -0.830872 -0.621903
 N 3.193248 -1.213640 -1.399679
 C 4.566262 -0.941180 -1.133915
 C 5.592327 -2.093429 -1.101069
 C 6.618917 -1.122733 -1.714763
 C 5.442038 -0.258621 -2.205687
 H 0.315740 -0.733867 -0.210755
 H 2.471096 -0.270382 0.265522
 H 2.950743 -1.733239 -2.229596
 H 4.616353 -0.374722 -0.199804
 H 5.310788 -2.871171 -1.816247
 H 5.811653 -2.561775 -0.140274
 H 7.305376 -1.517162 -2.463337
 H 7.198943 -0.611157 -0.943940
 H 5.121731 -0.562925 -3.205902
 H 5.533967 0.828362 -2.181268