15
charge = 0
 N 2.886426 1.952502 -2.608094
 C 2.269417 2.024807 -1.496824
 N 2.871993 1.763155 -0.307441
 C 4.293439 1.552398 -0.224667
 C 5.109407 2.849107 -0.297099
 C 4.815456 3.752663 0.801502
 C 4.545227 4.474109 1.723393
 H 2.251780 2.129081 -3.378429
 H 1.207974 2.273789 -1.386304
 H 2.402972 2.084422 0.521369
 H 4.583096 0.914032 -1.060480
 H 4.511564 1.026477 0.707049
 H 4.897415 3.338506 -1.252114
 H 6.176114 2.601959 -0.292369
 H 4.322721 5.127013 2.533811