15
charge = 0
 N 3.685186 -0.826164 1.169071
 C 2.723018 -0.166693 0.432036
 N 1.539566 0.116611 0.825520
 C 3.113927 0.301570 -0.902041
 C 4.351292 0.301788 -1.411667
 C 4.670968 0.788763 -2.734355
 C 5.902903 0.805584 -3.244185
 H 3.357299 -1.302371 1.993006
 H 4.378140 -1.342523 0.653391
 H 1.359399 -0.245243 1.761612
 H 2.283959 0.697509 -1.477340
 H 5.191216 -0.053682 -0.817951
 H 3.839069 1.159196 -3.328780
 H 6.754021 0.444709 -2.675469
 H 6.099635 1.180345 -4.240949