15
charge = 0
 N 2.677933 0.855450 -0.800251
 C 2.020420 -0.050332 0.000898
 N 0.763426 -0.259108 0.027609
 C 2.928661 -0.858929 0.869563
 C 2.444560 -1.422803 1.975754
 C 4.331573 -1.006559 0.454941
 C 5.377147 -0.921255 1.272174
 H 2.119897 1.550906 -1.265836
 H 3.591988 1.161454 -0.509805
 H 0.263509 0.391002 -0.576770
 H 1.405732 -1.279471 2.245418
 H 3.067327 -2.052783 2.599247
 H 4.501929 -1.191730 -0.603850
 H 5.252989 -0.690071 2.324988
 H 6.387389 -1.078472 0.912709