13
charge = 0
 N 1.024061 -0.266279 -0.122336
 C 2.345809 0.026288 0.134821
 N 2.978743 -0.154839 1.227518
 C 3.053183 0.547187 -1.003868
 C 3.621947 0.991512 -1.970349
 C 4.351076 1.515091 -3.064287
 C 3.844393 1.711084 -4.281830
 H 0.419436 -0.399744 0.670729
 H 0.600102 0.168532 -0.923591
 H 2.362831 -0.528259 1.949386
 H 5.390916 1.762346 -2.865772
 H 2.812711 1.472926 -4.511478
 H 4.457192 2.114756 -5.078132