10
charge = 0
 N 1.106014 0.007459 -0.038999
 C 2.463823 0.111697 -0.115769
 N 3.168371 0.966318 -0.744755
 C 3.165072 -0.904528 0.632113
 C 3.740172 -1.757180 1.259610
 C 4.397799 -2.722020 1.969668
 N 4.945252 -3.541132 2.572479
 H 0.520249 0.663708 -0.522030
 H 0.672650 -0.720963 0.497000
 H 2.586989 1.640631 -1.241008