13
charge = 0
 N 1.040219 0.027139 0.163476
 N 2.345535 0.036762 0.109837
 C 2.948605 0.331819 -0.998311
 C 4.400608 0.352193 -1.093086
 C 4.723680 0.690774 -2.359791
 C 3.493726 0.897219 -3.114502
 C 2.424484 0.685366 -2.311422
 H 0.625112 -0.211019 1.043514
 H 0.456850 0.239072 -0.632930
 H 5.059762 0.128598 -0.267461
 H 5.720189 0.796120 -2.765219
 H 3.453400 1.177442 -4.159015
 H 1.387220 0.767395 -2.604069