15
charge = 0
 N 0.962423 -0.146400 -0.032799
 N 2.329259 -0.199611 -0.010713
 C 2.921680 -0.585757 -1.062199
 C 2.291772 -1.044492 -2.357531
 C 3.485366 -1.331927 -3.217746
 C 4.631221 -1.102163 -2.584770
 C 4.426480 -0.617896 -1.182579
 H 0.607377 -0.174999 0.910247
 H 0.515040 -0.848175 -0.615138
 H 1.636516 -0.269020 -2.777785
 H 1.656764 -1.933024 -2.218917
 H 3.399902 -1.685507 -4.238360
 H 5.613918 -1.243144 -3.018658
 H 4.864980 0.372244 -1.013550
 H 4.880591 -1.285018 -0.440794