15
charge = 0
 N 0.990822 0.959578 0.133275
 N 2.340442 1.004410 0.276563
 C 3.070362 0.746759 -0.727532
 C 4.552995 0.864320 -0.650568
 C 5.087863 1.990530 -1.548437
 C 6.538060 2.072011 -1.543697
 C 7.737561 2.120258 -1.523962
 H 0.545541 0.771713 1.017128
 H 0.651037 0.352192 -0.607150
 H 2.626886 0.450330 -1.689383
 H 5.019582 -0.077124 -0.959801
 H 4.838729 1.049610 0.386029
 H 4.667992 2.945626 -1.217063
 H 4.741697 1.840622 -2.577336
 H 8.800432 2.169455 -1.508865