15
charge = 0
 C -0.872473 0.000081 -1.219789
 C -0.621220 1.021860 -0.093746
 C -1.345277 0.000088 0.833887
 C -0.621414 -1.021788 -0.093783
 C 0.830900 -0.726838 0.301682
 O 1.599520 -0.000165 -0.654297
 C 0.831038 0.726620 0.301708
 H -0.205996 0.000033 -2.079110
 H -1.918078 0.000186 -1.527361
 H -0.930763 2.062819 -0.171502
 H -2.430279 0.000194 0.711341
 H -1.079479 0.000044 1.894597
 H -0.931156 -2.062685 -0.171576
 H 1.385464 -1.353359 0.990605
 H 1.385722 1.353010 0.990653