15
charge = 0
 C -0.989956 -0.011093 -1.073775
 C -0.583394 0.995318 0.017539
 C -1.034774 -0.062028 1.040963
 C -0.619396 -1.100434 -0.033702
 C 0.881449 -1.173426 -0.003652
 C 1.515958 -0.004475 0.037951
 O 0.833532 1.167797 0.051723
 H -0.443145 0.006087 -2.016903
 H -2.065009 0.043056 -1.250086
 H -1.007751 1.997605 0.032687
 H -2.116384 -0.015331 1.173996
 H -0.528407 -0.090812 2.006132
 H -1.113840 -2.069916 -0.067532
 H 1.424240 -2.108543 -0.014672
 H 2.588595 0.138595 0.064130