15
charge = 0
 C -1.540313 0.856254 0.637656
 C -1.329983 -0.389552 -0.162548
 C -0.289435 -1.407912 0.279323
 C 1.041756 -0.693537 0.238199
 O 1.147671 0.426575 1.110507
 C 0.840510 0.668956 -0.258974
 C -0.618588 0.888184 -0.544850
 H -1.089027 0.927185 1.618496
 H -2.497995 1.350986 0.529248
 H -2.164089 -0.746869 -0.754832
 H -0.261575 -2.240394 -0.430446
 H -0.491655 -1.829107 1.268602
 H 1.962123 -1.255675 0.101753
 H 1.593487 1.221009 -0.812355
 H -0.887479 1.455377 -1.426690