13
charge = 0
 C -2.559774 0.389235 0.632751
 C -2.399558 0.386910 -0.887672
 C -1.232509 0.245789 0.018652
 O -0.544463 -0.978935 0.089161
 C 0.772792 -0.644803 -0.121294
 C 0.921164 0.669711 -0.107660
 O -0.288970 1.284648 0.112627
 H -2.991579 -0.489056 1.095775
 H -2.786033 1.332009 1.114650
 H -2.521585 1.330336 -1.404894
 H -2.727595 -0.494798 -1.423810
 H 1.478798 -1.449008 -0.233235
 H 1.788910 1.298451 -0.204741