17
charge = 0
 C -0.402598 -0.994259 -0.492327
 C 0.886474 -1.076982 -1.254110
 C 0.808427 -0.265557 0.001595
 C 1.529685 -0.682926 1.251339
 C 0.772337 -0.488011 2.574950
 O 0.729781 -1.900630 2.816690
 C 1.512300 -2.165900 1.647310
 H -0.728171 -1.873820 0.050644
 H -1.210374 -0.410277 -0.915135
 H 0.961891 -0.558291 -2.201529
 H 1.430811 -2.013802 -1.215775
 H 0.789801 0.811262 -0.142097
 H 2.532814 -0.250838 1.254625
 H -0.231087 -0.060187 2.479947
 H 1.321219 0.041186 3.361587
 H 1.002077 -2.851783 0.962617
 H 2.491624 -2.586174 1.900268