17
charge = 0
 C 0.556828 0.213485 -1.319516
 C -0.496779 -0.497104 -0.509318
 C 0.937501 -0.693145 -0.190822
 O 1.385359 -0.131763 1.000327
 C 2.748638 0.143283 0.980766
 C 3.428194 0.183308 2.297441
 C 3.711336 -0.945400 1.339686
 H 0.667393 1.277121 -1.148057
 H 0.744133 -0.110967 -2.335657
 H -1.041971 -1.315910 -0.961205
 H -1.064557 0.102626 0.190675
 H 1.400244 -1.646732 -0.437341
 H 3.049537 0.858014 0.217320
 H 2.814984 -0.047027 3.159392
 H 4.190155 0.934310 2.462637
 H 3.285428 -1.910400 1.585287
 H 4.670986 -0.979700 0.838895