17
charge = 0
 C -1.261026 -0.785320 -0.515241
 C -1.232559 0.766086 -0.523948
 C 0.011939 1.062382 0.312035
 C -0.025328 -0.031741 1.371127
 C -0.017145 -1.139405 0.313309
 C 1.208751 -0.712556 -0.487767
 O 1.162246 0.718541 -0.461795
 H -1.216093 -1.213257 -1.519151
 H -2.166537 -1.165781 -0.036626
 H -2.129358 1.195768 -0.070125
 H -1.127583 1.185951 -1.525205
 H 0.123355 2.092752 0.648355
 H -0.932474 -0.020818 1.978945
 H 0.856310 -0.026202 2.014558
 H 0.022658 -2.168155 0.671519
 H 1.177931 -1.064305 -1.524665
 H 2.146003 -1.052750 -0.031604