17
charge = 0
 C -1.714099 0.842797 0.541730
 C -1.168679 -0.274482 -0.288030
 C -0.290285 -1.340107 0.321479
 C 1.105608 -1.263149 -0.284744
 O 1.677638 0.035474 -0.255176
 C 0.864542 1.058658 0.289383
 C -0.511315 1.079252 -0.320692
 H -1.569128 0.799527 1.616254
 H -2.650031 1.292212 0.234484
 H -1.741775 -0.566798 -1.161104
 H -0.695467 -2.340095 0.148292
 H -0.233126 -1.214123 1.406612
 H 1.060909 -1.584229 -1.333295
 H 1.786389 -1.944043 0.239526
 H 1.402840 1.987401 0.092867
 H 0.791881 0.951486 1.380908
 H -0.639002 1.684618 -1.210693