17
charge = 0
 C -0.821787 0.044788 -1.202343
 C -0.643018 1.075216 -0.061865
 C -1.178823 -0.016549 0.889225
 C -0.573411 -1.017012 -0.111065
 O 0.802801 -1.203014 0.159309
 C 1.583596 -0.045697 -0.085159
 C 0.845201 1.258039 0.225282
 H -0.158733 0.076646 -2.068935
 H -1.857610 0.002492 -1.542680
 H -1.174895 2.026502 -0.120856
 H -2.270006 -0.058879 0.895079
 H -0.793081 -0.047450 1.910411
 H -1.008236 -2.011900 -0.213007
 H 1.895163 -0.041390 -1.137487
 H 2.488221 -0.149595 0.517088
 H 1.270878 2.056088 -0.391302
 H 0.976962 1.551614 1.271615