15
charge = 0
 C 1.568653 -0.043184 0.310993
 C 0.885805 -1.422836 0.455181
 C -0.259783 -0.929091 -0.457306
 C -1.405674 -0.233202 0.215538
 C -1.275445 1.079818 0.048642
 O -0.177427 1.481620 -0.644585
 C 0.605078 0.299073 -0.836543
 H 2.633351 -0.036998 0.075049
 H 1.395057 0.609449 1.167293
 H 0.607585 -1.729279 1.464730
 H 1.460540 -2.227284 -0.008327
 H -0.583939 -1.619608 -1.241716
 H -2.230978 -0.717979 0.715733
 H -1.925479 1.881651 0.372238
 H 1.044769 0.339048 -1.832521