15
charge = 0
 C 1.896728 0.055561 -0.746585
 O 1.695380 -0.103291 0.650676
 C 0.555241 0.041319 -0.181467
 C -0.328123 1.257842 0.031588
 C -1.729945 0.675541 -0.128861
 O -1.614803 -0.685071 0.244057
 C -0.396509 -1.133110 -0.305793
 H 2.275385 -0.824110 -1.264368
 H 2.342484 1.000412 -1.050036
 H -0.119008 2.067872 -0.668367
 H -0.168884 1.626231 1.047136
 H -2.069598 0.753654 -1.172813
 H -2.477619 1.139712 0.514380
 H -0.531046 -1.406685 -1.364086
 H -0.048682 -2.004768 0.249731