15
charge = 0
 C 0.328091 1.444805 0.360369
 C 1.366102 0.342291 0.061574
 C 0.503854 -0.649658 -0.763711
 O -0.331348 0.245478 -1.491468
 C -0.922149 0.864925 -0.353170
 C -1.366348 -0.329091 0.464425
 C -0.472786 -1.278162 0.207176
 H 0.613619 2.391779 -0.099739
 H 0.161815 1.613647 1.424918
 H 1.789557 -0.115402 0.956353
 H 2.183445 0.724479 -0.551505
 H 1.046163 -1.309193 -1.437958
 H -1.679653 1.585937 -0.653211
 H -2.172030 -0.336806 1.185837
 H -0.369210 -2.251619 0.666820