15
charge = 0
 C -0.370671 -1.025910 1.173459
 C 0.801515 -1.269871 0.199422
 C 0.893872 0.115679 -0.493560
 O 0.576584 0.989039 0.585816
 C -0.716420 0.450849 0.844576
 C -1.341553 0.447295 -0.534067
 C -0.332508 0.237273 -1.372570
 H -0.046174 -1.110070 2.211535
 H -1.215767 -1.697897 1.019606
 H 0.622498 -2.080522 -0.507840
 H 1.726531 -1.478936 0.738515
 H 1.858238 0.370340 -0.928121
 H -1.219845 1.011015 1.629734
 H -2.400897 0.488179 -0.747930
 H -0.365083 0.064447 -2.439663