17
charge = 0
 C 1.819781 0.021919 -0.888000
 O 1.648353 -0.198940 0.503163
 C 0.486090 -0.015684 -0.301934
 C -0.356262 1.219453 -0.007834
 C -1.806765 0.734593 -0.082582
 C -1.718646 -0.749477 0.274019
 C -0.452923 -1.198087 -0.450264
 H 2.185214 -0.833530 -1.454095
 H 2.264069 0.978556 -1.156693
 H -0.145337 2.045350 -0.689992
 H -0.110743 1.559088 1.002234
 H -2.188286 0.841221 -1.103518
 H -2.474699 1.296952 0.572534
 H -2.606355 -1.315241 -0.015021
 H -1.589845 -0.865781 1.355248
 H -0.671960 -1.358921 -1.511882
 H -0.002966 -2.111178 -0.057573