15
charge = 0
 C -1.016791 -0.043957 1.107281
 C -0.637483 0.985983 0.035801
 C 0.860747 1.266544 0.009615
 C 1.603950 -0.040760 0.018066
 C 0.902429 -1.168802 0.014407
 C -0.596168 -1.012640 -0.007863
 O -0.937865 0.004927 -0.986036
 H -2.092774 -0.055892 1.279663
 H -0.463053 -0.066428 2.045726
 H -1.242757 1.889289 -0.066206
 H 1.148370 1.883855 0.869425
 H 1.114190 1.844182 -0.886810
 H 2.689149 -0.034580 0.014891
 H 1.361791 -2.150740 0.028912
 H -1.147525 -1.940171 -0.164264