17
charge = 0
 C -1.470082 0.777614 -0.059450
 C -1.470863 -0.777554 0.058937
 C -0.180837 -1.452188 0.632741
 C 0.816992 -0.695767 -0.193445
 O 2.053247 -0.001819 -0.000860
 C 0.817795 0.693424 0.192180
 C -0.179532 1.450936 -0.633625
 H -1.635559 1.198238 0.938477
 H -2.338802 1.072265 -0.654933
 H -1.637062 -1.198009 -0.938943
 H -2.339710 -1.071313 0.654674
 H -0.217200 -2.533113 0.469913
 H -0.066632 -1.264369 1.702353
 H 0.666775 -0.877206 -1.258474
 H 0.668166 0.875016 1.257267
 H -0.065879 1.263064 -1.703286
 H -0.214718 2.531890 -0.470725