15
charge = 0
 C -0.078216 1.457587 0.614079
 C -1.382697 0.733961 0.252962
 C -1.475665 -0.498320 -0.278778
 C -0.300121 -1.445726 -0.554740
 C 0.738355 -0.767056 0.290013
 O 2.034030 -0.195040 0.106764
 C 0.877414 0.598561 -0.161523
 H 0.092573 1.440412 1.694786
 H -0.118919 2.504754 0.298435
 H -2.306013 1.286037 0.407188
 H -2.470137 -0.877190 -0.499167
 H -0.055509 -1.465644 -1.621123
 H -0.548973 -2.466859 -0.249456
 H 0.527786 -0.882490 1.352309
 H 0.764391 0.743212 -1.235039