17
charge = 0
 C 0.863696 -1.111968 0.322603
 C -0.516245 -1.630344 -0.049334
 C -1.566548 -0.583003 -0.239976
 C -1.451185 0.730227 -0.065483
 C -0.229221 1.462677 0.412851
 C 1.052410 1.177248 -0.363511
 O 1.328478 -0.181828 -0.623464
 H 1.574871 -1.943100 0.320537
 H 0.868541 -0.694779 1.336366
 H -0.849162 -2.354699 0.706835
 H -0.427495 -2.201000 -0.982214
 H -2.530416 -0.958433 -0.576884
 H -2.329911 1.337998 -0.263075
 H -0.073153 1.261811 1.477961
 H -0.398787 2.541349 0.348635
 H 1.895473 1.631554 0.178576
 H 0.999252 1.653569 -1.346513