15
charge = 0
 C -1.392322 0.640889 0.131757
 C -1.431750 -0.840961 -0.221746
 C -0.290486 -1.624450 0.331418
 C 0.958258 -1.161967 0.457488
 C 1.474827 0.127646 0.044039
 C 0.837010 1.195933 -0.460048
 O -0.475544 1.411099 -0.626198
 H -1.162768 0.762764 1.195286
 H -2.360621 1.100078 -0.071283
 H -1.486933 -0.934541 -1.312905
 H -2.374130 -1.247376 0.160849
 H -0.502504 -2.630529 0.679574
 H 1.697105 -1.832362 0.886956
 H 2.551574 0.246223 0.096853
 H 1.406883 2.049756 -0.811638