15
charge = 0
 C 1.136288 1.179314 -0.285436
 C -0.178740 1.595505 0.369459
 C -1.350918 0.753355 -0.009855
 C -1.433450 -0.562356 -0.182980
 O -0.499444 -1.538755 -0.062121
 C 0.830976 -1.329422 0.100632
 C 1.559069 -0.220272 0.013744
 H 1.928053 1.860362 0.040428
 H 1.046803 1.319107 -1.368647
 H -0.395406 2.634772 0.105109
 H -0.046505 1.583549 1.457240
 H -2.294182 1.267713 -0.163661
 H -2.381299 -1.019645 -0.440916
 H 1.308326 -2.279727 0.308286
 H 2.618639 -0.386899 0.179629