17
charge = 0
 C -0.257615 -1.128773 -0.368860
 C 1.033120 -1.077222 -1.131645
 C 0.832871 -0.201739 0.064848
 C 1.605553 -0.465721 1.320246
 C 0.884691 -0.316653 2.669313
 C 1.324402 -1.761959 2.897690
 O 1.836119 -1.866619 1.561262
 H -0.428804 -2.011901 0.234687
 H -1.143659 -0.701408 -0.821433
 H 1.040221 -0.616117 -2.111271
 H 1.700517 -1.921878 -1.014206
 H 0.680425 0.856571 -0.128191
 H 2.562824 0.072188 1.282401
 H -0.192692 -0.186185 2.568780
 H 1.284731 0.429207 3.354600
 H 0.534529 -2.493942 3.090332
 H 2.119059 -1.889840 3.640947