15
charge = 0
 C 2.071958 -0.116160 -0.014753
 C 0.733578 -0.815030 0.162959
 C -0.416274 -1.476581 -0.553908
 C -1.523934 -0.473258 -0.236316
 C -1.319232 0.773589 0.228080
 O -0.108525 1.415292 0.367598
 C 0.788848 0.580059 -0.313575
 H 2.715969 -0.261920 -0.875755
 H 2.601487 0.029384 0.918793
 H 0.521750 -0.810495 1.230527
 H -0.673980 -2.465159 -0.160139
 H -0.257712 -1.590084 -1.631072
 H -2.559251 -0.793088 -0.289785
 H -2.139051 1.416525 0.525075
 H 0.624871 0.672326 -1.386138