15
charge = 0
 C -1.378260 0.777398 0.587143
 C -1.148965 -0.315137 -0.424665
 O -0.363622 -1.395258 -0.025176
 C 0.975581 -1.267084 -0.459093
 C 1.568242 0.023055 0.047470
 O 0.897008 1.144729 -0.491876
 C -0.483854 1.013273 -0.593661
 H -0.914082 0.610114 1.551265
 H -2.334446 1.285196 0.616915
 H -1.954860 -0.596961 -1.097048
 H 1.032222 -1.301882 -1.555985
 H 1.518223 -2.122507 -0.052331
 H 2.613197 0.117817 -0.256052
 H 1.524901 0.037723 1.145488
 H -0.856696 1.666123 -1.373907