17
charge = 0
 C 0.797042 -1.241978 0.525390
 C 1.662681 -0.096017 0.021684
 O 0.939378 0.978599 -0.527865
 C -0.080636 1.496739 0.288575
 C -1.381350 0.755846 0.178467
 C -1.526931 -0.523852 -0.147601
 C -0.418322 -1.514849 -0.355241
 H 0.447249 -1.035177 1.541901
 H 1.428690 -2.133922 0.592391
 H 2.305622 -0.441918 -0.792199
 H 2.316615 0.259772 0.832924
 H -0.238115 2.527421 -0.043882
 H 0.251189 1.558504 1.338377
 H -2.272738 1.355409 0.346806
 H -2.538811 -0.907351 -0.250021
 H -0.123317 -1.538446 -1.412038
 H -0.806457 -2.513001 -0.131758