15
charge = 0
 C 1.624161 -0.112859 -0.064738
 C 0.708038 -1.164701 0.520565
 O -0.422253 -1.451109 -0.284309
 C -1.431608 -0.556136 -0.176502
 C -1.338797 0.722097 0.181956
 C -0.067231 1.500577 0.379986
 O 0.979352 1.071461 -0.459032
 H 2.110646 -0.497199 -0.964612
 H 2.409077 0.093475 0.681828
 H 0.357452 -0.873389 1.517467
 H 1.265049 -2.099860 0.619546
 H -2.385239 -1.008234 -0.427477
 H -2.270331 1.272507 0.251036
 H 0.253138 1.511167 1.433658
 H -0.252165 2.541812 0.105219