17
charge = 0
 C -1.434846 0.713998 0.122355
 C -1.447498 -0.784418 -0.116874
 O -0.286253 -1.452305 0.322518
 C 0.841917 -1.165582 -0.462506
 C 1.654790 0.022563 0.021936
 O 0.939261 1.205026 0.290524
 C -0.230469 1.444057 -0.453986
 H -1.463276 0.918425 1.196864
 H -2.349580 1.134056 -0.313359
 H -1.596420 -0.986469 -1.189980
 H -2.280096 -1.242962 0.421792
 H 0.539282 -1.029652 -1.510449
 H 1.498614 -2.041759 -0.432525
 H 2.437836 0.209842 -0.730725
 H 2.152901 -0.236182 0.960180
 H -0.090295 1.206121 -1.518797
 H -0.398938 2.522149 -0.390368