15
charge = 0
 C 0.294496 1.407778 0.505882
 O 1.100184 0.441246 -0.160267
 C 0.185936 -0.346386 -0.962117
 C -0.803044 0.711839 -1.432644
 C -1.141133 1.100538 0.017990
 C -1.464766 -0.255080 0.597888
 C -0.665422 -1.141310 0.002092
 H 0.613020 2.412803 0.208402
 H 0.400421 1.304183 1.589838
 H 0.768586 -0.890381 -1.701699
 H -1.659117 0.304775 -1.969110
 H -0.324596 1.507818 -2.007371
 H -1.860362 1.901126 0.180746
 H -2.129943 -0.426575 1.435009
 H -0.532369 -2.186183 0.249391