15
charge = 0
 C -1.685303 0.706478 0.354804
 C -1.685414 -0.704395 -0.356621
 C -0.200591 -0.728556 0.075080
 O 1.050781 -1.096628 -0.459407
 C 1.871020 -0.002350 0.005276
 O 1.051256 1.093542 0.467010
 C -0.198959 0.727833 -0.071787
 H -1.837945 0.605491 1.429387
 H -2.336042 1.480134 -0.048289
 H -1.834167 -0.603122 -1.431722
 H -2.338998 -1.476817 0.044228
 H -0.214549 -0.976310 1.146744
 H 2.492667 0.314326 -0.837599
 H 2.489004 -0.320239 0.850387
 H -0.208762 0.975613 -1.143490