15
charge = 0
 C -0.803643 0.000031 -1.215120
 C -0.575555 1.035581 -0.093463
 C -1.176849 0.000016 0.876789
 C -0.575665 -1.035581 -0.093498
 O 0.808672 -1.170574 0.200158
 C 1.516258 -0.000110 -0.112870
 O 0.808795 1.170418 0.200196
 H -0.164353 0.000012 -2.098088
 H -1.848865 0.000091 -1.524578
 H -0.990248 2.040373 -0.168590
 H -2.268305 0.000074 0.859686
 H -0.798174 -0.000021 1.898637
 H -0.990463 -2.040327 -0.168658
 H 1.772194 -0.000106 -1.182057
 H 2.432690 -0.000168 0.478346