17
charge = 0
 C -0.759038 0.000044 -1.166679
 C -0.624008 1.043912 -0.041738
 C -1.232017 0.000131 0.914347
 C -0.624223 -1.043811 -0.041700
 C 0.839432 -1.222663 0.290916
 O 1.538425 -0.000163 0.446193
 C 0.839683 1.222475 0.290871
 H -0.005428 -0.000048 -1.958899
 H -1.758057 0.000139 -1.605969
 H -1.109864 2.015652 -0.152110
 H -2.322777 0.000242 0.878737
 H -0.894873 0.000115 1.954499
 H -1.110278 -2.015455 -0.152036
 H 1.333638 -1.796000 -0.504703
 H 0.941099 -1.792363 1.224303
 H 1.334008 1.795682 -0.504769
 H 0.941468 1.792189 1.224236