15
charge = 0
 C -1.786442 0.641617 0.276185
 O -1.719108 -0.677907 -0.338683
 C -0.327308 -0.689610 0.045299
 C 0.972572 -1.034187 -0.630089
 O 1.821629 -0.046210 -0.000530
 C 1.066749 1.046405 0.600326
 C -0.284498 0.805592 -0.007684
 H -2.047706 0.560531 1.337416
 H -2.481648 1.299071 -0.246023
 H -0.271945 -1.046399 1.085636
 H 0.940699 -0.892674 -1.716050
 H 1.389897 -2.014597 -0.394996
 H 1.556451 1.977355 0.310626
 H 1.086672 0.947419 1.690605
 H -0.224103 1.078503 -1.066338