15
charge = 0
 C 0.811294 -1.117169 0.908795
 C 1.105118 -0.373384 -0.348188
 C 0.866372 1.106336 -0.470488
 O -0.303207 1.566618 0.195973
 C -1.416103 0.809778 0.022161
 C -1.397944 -0.497742 -0.224718
 C -0.121749 -1.234187 -0.280169
 H 0.438334 -0.560151 1.759931
 H 1.436365 -1.967707 1.152482
 H 1.931816 -0.729220 -0.955173
 H 0.783251 1.361607 -1.535686
 H 1.687339 1.685472 -0.042743
 H -2.325025 1.387373 0.143659
 H -2.336691 -1.025314 -0.333443
 H -0.117252 -2.174910 -0.817674