15
charge = 0
 C -0.462808 1.453377 -0.422139
 O -1.304032 0.567386 0.255641
 C -1.303618 -0.758751 -0.234621
 C -0.224348 -1.608957 0.354465
 C 1.051318 -1.227668 0.449936
 C 1.621329 0.019130 -0.034938
 C 0.992274 1.126868 -0.442980
 H -0.592124 2.415186 0.087890
 H -0.807774 1.611945 -1.459130
 H -1.221111 -0.754281 -1.332802
 H -2.283275 -1.173375 0.013787
 H -0.512124 -2.584927 0.733469
 H 1.757803 -1.922091 0.895558
 H 2.706405 0.031290 -0.094269
 H 1.607473 1.939079 -0.825566