17
charge = 0
 C 1.504369 -0.208238 -0.358337
 C 2.913464 0.003182 0.091606
 C 3.715172 -1.049768 0.787708
 C 4.132977 -0.548189 -0.574287
 C 5.148006 0.578375 -0.610440
 C 4.296094 1.799459 -0.257413
 O 3.201264 1.317051 0.507823
 H 1.353453 -1.241004 -0.679082
 H 1.259885 0.453401 -1.193298
 H 0.806629 -0.000220 0.456854
 H 3.303478 -2.050900 0.848947
 H 4.303594 -0.737351 1.642883
 H 4.049457 -1.219612 -1.420158
 H 5.606747 0.679251 -1.595954
 H 5.950805 0.423538 0.115746
 H 3.926256 2.287065 -1.170467
 H 4.821551 2.545881 0.341370