15
charge = 0
 C 1.367948 0.213386 0.469003
 C 2.709045 -0.011455 -0.143048
 C 3.461168 1.048477 -0.873016
 C 4.046977 0.452051 0.392393
 C 4.912521 -0.727958 0.176161
 C 4.184108 -1.669063 -0.422528
 O 2.879423 -1.338662 -0.612299
 H 1.291458 1.234895 0.844566
 H 1.198857 -0.476559 1.298696
 H 0.577981 0.063049 -0.271319
 H 3.050371 2.048558 -0.804979
 H 3.942605 0.800791 -1.811400
 H 4.143788 1.067318 1.279382
 H 5.953831 -0.811331 0.446482
 H 4.463121 -2.650588 -0.778005