15
charge = 0
 C 1.335652 0.351692 -0.270182
 C 2.614788 -0.296878 0.148297
 C 2.813128 -1.795867 -0.008199
 C 4.304294 -1.947775 -0.123239
 C 4.930475 -0.772970 -0.107449
 C 3.945818 0.320877 0.085339
 O 3.228784 0.216407 1.325342
 H 0.501688 -0.018447 0.332939
 H 1.115655 0.135539 -1.318542
 H 1.395136 1.432913 -0.139822
 H 2.298218 -2.174981 -0.898490
 H 2.406885 -2.339020 0.851739
 H 4.790931 -2.914398 -0.181009
 H 5.999933 -0.621174 -0.177474
 H 4.120915 1.334780 -0.260248