17
charge = 0
 C 1.069359 -0.033973 -0.170013
 C 2.559712 0.013897 -0.102357
 C 3.514041 -0.437983 -1.226507
 C 4.546067 -0.297948 -0.082395
 C 3.432156 -0.826500 0.852224
 C 4.434133 1.193733 0.191993
 O 3.009225 1.352990 0.165628
 H 0.726738 -1.050075 -0.373417
 H 0.703541 0.622881 -0.962526
 H 0.635064 0.297995 0.775788
 H 3.606045 0.217878 -2.094855
 H 3.358206 -1.474257 -1.526774
 H 5.542230 -0.734762 -0.124795
 H 3.448562 -0.529320 1.902967
 H 3.268686 -1.899000 0.745781
 H 4.897187 1.814206 -0.582085
 H 4.828147 1.486639 1.170542