17
charge = 0
 C 1.006333 -0.100523 -0.043474
 C 2.491655 0.081290 0.056497
 C 3.506510 -0.519688 -0.956461
 C 4.480967 -0.171562 0.176169
 C 3.371850 -0.580175 1.154179
 O 4.446030 1.256758 0.214874
 C 3.036681 1.505052 0.132071
 H 0.739096 -1.158838 -0.090861
 H 0.610139 0.384931 -0.940378
 H 0.497703 0.334407 0.822092
 H 3.648394 -0.013406 -1.913655
 H 3.366984 -1.592763 -1.092184
 H 5.509644 -0.520213 0.231808
 H 3.220125 -1.658729 1.209660
 H 3.389198 -0.129832 2.148947
 H 2.807996 2.098012 -0.760321
 H 2.694375 2.046978 1.020555