17
charge = 0
 C 0.705630 0.107057 -0.101121
 C 2.181579 0.074994 0.166591
 C 3.114291 -0.942606 -0.454412
 C 2.643095 -1.699215 -1.682705
 C 2.790227 -0.661974 -2.799211
 O 2.716543 0.615313 -2.176637
 C 3.185046 0.493605 -0.865903
 H 0.187440 -0.701446 0.421963
 H 0.488366 0.021714 -1.166478
 H 0.278222 1.053385 0.239509
 H 2.459208 0.344003 1.182317
 H 3.880158 -1.385351 0.169662
 H 1.609755 -2.042142 -1.584762
 H 3.264595 -2.577443 -1.866144
 H 2.001307 -0.711847 -3.552883
 H 3.759946 -0.770864 -3.303924
 H 4.012704 1.149718 -0.617673