15
charge = 0
 C 0.900190 -0.068021 -0.128958
 C 2.377508 -0.002177 0.115253
 C 3.349468 -0.948680 -0.540156
 O 2.876402 -1.647963 -1.661142
 C 3.056924 -0.767963 -2.744414
 O 2.874329 0.535304 -2.245760
 C 3.348734 0.490983 -0.925864
 H 0.433706 -0.809511 0.523707
 H 0.683441 -0.343564 -1.160162
 H 0.433165 0.899956 0.066794
 H 2.668335 0.268649 1.127444
 H 4.141795 -1.439923 0.012277
 H 2.301944 -0.972324 -3.505648
 H 4.071587 -0.878100 -3.159514
 H 4.140671 1.193314 -0.693748