17
charge = 0
 C 0.981235 0.323804 -0.248046
 C 2.480406 0.287816 -0.166887
 C 3.256493 -0.783510 -0.871703
 C 3.310914 0.636185 -1.360462
 C 4.570984 1.415633 -1.222398
 C 4.653978 2.644226 -0.437247
 O 5.187780 1.424939 0.055554
 H 0.528939 -0.334437 0.498785
 H 0.634255 -0.005023 -1.231546
 H 0.595153 1.333280 -0.080569
 H 2.905924 0.594907 0.783639
 H 2.708137 -1.505652 -1.465552
 H 4.138812 -1.171972 -0.377339
 H 2.769861 0.846940 -2.279130
 H 5.279189 1.299239 -2.043311
 H 3.763790 2.998837 0.076889
 H 5.389839 3.403806 -0.689487