19
charge = 0
 C 0.831566 0.137636 -0.286834
 C 2.315136 0.100851 -0.051618
 C 3.150784 -0.965162 -0.690354
 C 3.281813 0.455837 -1.150901
 C 4.537711 1.236595 -0.868090
 C 4.326097 2.739507 -0.923117
 O 3.417639 3.206190 0.051170
 H 0.306388 -0.548086 0.383715
 H 0.593609 -0.155665 -1.312776
 H 0.416956 1.137751 -0.125259
 H 2.628339 0.393101 0.947157
 H 2.651224 -1.669742 -1.345130
 H 3.972048 -1.385141 -0.121196
 H 2.823170 0.674398 -2.113516
 H 5.312178 0.966873 -1.596175
 H 4.922568 0.964636 0.121137
 H 3.994274 3.027676 -1.932413
 H 5.267721 3.259826 -0.732232
 H 2.612488 2.688120 -0.034959