15
charge = 0
 C 0.773901 -0.247587 -0.369446
 C 2.254681 -0.212546 -0.122776
 C 3.215118 -0.912655 -1.050362
 C 3.145582 0.575806 -1.008354
 O 4.196226 1.267950 -0.365467
 C 5.087611 1.857685 -1.164539
 O 5.069392 1.866449 -2.359192
 H 0.331708 -1.164791 0.027749
 H 0.553887 -0.212125 -1.439469
 H 0.272434 0.601010 0.102893
 H 2.556367 -0.215648 0.920061
 H 2.824091 -1.409447 -1.930404
 H 4.088429 -1.376958 -0.610030
 H 2.735938 1.109417 -1.856862
 H 5.848435 2.352538 -0.543194