17
charge = 0
 C 0.967133 -0.038159 -0.091692
 C 2.481498 -0.065745 -0.077012
 C 3.098303 -1.201964 0.785759
 C 3.871279 -0.317290 1.765401
 C 4.577622 0.696205 0.858015
 C 3.110014 1.103124 0.699495
 O 2.893609 0.711111 2.082374
 H 0.559361 -0.954028 -0.527189
 H 0.590586 0.805065 -0.677658
 H 0.580478 0.052893 0.926112
 H 2.865565 -0.089695 -1.101528
 H 3.743975 -1.879899 0.223799
 H 2.335051 -1.790096 1.298930
 H 4.339064 -0.771623 2.637887
 H 5.127944 0.337412 -0.014181
 H 5.147307 1.428841 1.427612
 H 2.786212 2.117648 0.467067