15
charge = 0
 C 1.380550 0.156074 0.655608
 C 2.340882 -0.104093 -0.222114
 C 3.071281 -1.406436 -0.450218
 C 4.277307 -0.995981 -1.256935
 C 5.126355 0.113002 -0.688486
 C 4.021244 0.421474 -1.641847
 O 2.807880 0.849926 -1.080137
 H 1.012695 -0.628141 1.302123
 H 0.939172 1.141093 0.725994
 H 2.446396 -2.090344 -1.033291
 H 3.312204 -1.898870 0.493750
 H 4.719438 -1.699944 -1.949382
 H 6.142938 0.198909 -1.051681
 H 4.981439 0.392591 0.349461
 H 4.198808 0.841042 -2.622434