17
charge = 0
 C 1.228904 0.140393 0.830297
 C 2.375849 -0.104939 -0.130630
 C 2.396578 -1.519590 -0.736100
 C 3.106125 -1.352720 -2.051475
 O 4.296291 -0.574250 -1.966416
 C 3.102887 0.060746 -2.416208
 C 2.391173 0.840193 -1.345022
 H 1.263650 -0.552453 1.675215
 H 0.263625 0.009487 0.331561
 H 1.259737 1.155699 1.234440
 H 3.318610 0.035145 0.403877
 H 1.377623 -1.876123 -0.931085
 H 2.878534 -2.247238 -0.077709
 H 3.125949 -2.150676 -2.788134
 H 3.120101 0.402707 -3.447013
 H 1.370913 1.053485 -1.687046
 H 2.869270 1.797623 -1.121452