15
charge = 0
 C 1.219839 0.017377 0.979436
 C 2.230429 -0.005253 0.123954
 C 2.907982 -1.249595 -0.404523
 C 4.269669 -0.768073 -0.828814
 O 4.944141 -0.024688 0.178718
 C 4.280650 0.692893 -0.854487
 C 2.926466 1.209432 -0.447734
 H 0.781144 -0.897469 1.362556
 H 0.795043 0.951606 1.330064
 H 2.377630 -1.642200 -1.281317
 H 2.951176 -2.047701 0.340132
 H 4.905385 -1.373696 -1.467505
 H 4.925228 1.266081 -1.513893
 H 2.401842 1.578918 -1.337920
 H 2.981845 2.032468 0.268433