19
charge = 0
 C 1.037987 -0.053102 -0.450808
 C 2.486455 -0.009012 -0.036460
 C 2.689388 0.097284 1.452792
 C 3.459358 -0.819914 -0.842068
 C 3.437137 0.678517 -0.978286
 C 4.599714 1.502711 -0.511851
 O 4.232130 2.792533 -0.058235
 H 0.528958 -0.913577 -0.005479
 H 0.935189 -0.129861 -1.536145
 H 0.511661 0.849728 -0.126017
 H 2.205005 -0.742199 1.960751
 H 2.255884 1.022931 1.840949
 H 3.743885 0.084024 1.730385
 H 3.085713 -1.419745 -1.663742
 H 4.304621 -1.255416 -0.319546
 H 2.979051 1.052379 -1.892700
 H 5.343655 1.573628 -1.318701
 H 5.097681 1.024506 0.333733
 H 3.770730 3.240797 -0.771483