19
charge = 0
 C 1.000060 0.132462 -0.197844
 C 2.499749 0.039076 -0.184696
 C 3.268961 -0.849305 -1.124207
 C 2.605682 -1.716977 -2.156636
 C 3.329955 0.644704 -1.277088
 C 4.588565 1.391211 -0.952373
 O 4.364475 2.694298 -0.446694
 H 0.543589 -0.680946 0.373512
 H 0.596426 0.090771 -1.211289
 H 0.670830 1.075489 0.246565
 H 2.935689 0.131286 0.806507
 H 4.160742 -1.294698 -0.689906
 H 1.736525 -1.230494 -2.602934
 H 2.268748 -2.663100 -1.723437
 H 3.299156 -1.953041 -2.968424
 H 2.769464 1.041497 -2.123109
 H 5.244209 1.427445 -1.834657
 H 5.134862 0.862430 -0.166532
 H 3.863004 3.187561 -1.100569