17
charge = 0
 C 0.930728 0.030957 0.032830
 C 2.429700 -0.059710 -0.003489
 C 3.181926 -0.849129 -1.011913
 C 2.525691 -1.642990 -2.105359
 C 3.200828 0.666958 -1.090944
 C 4.432334 1.371869 -0.724272
 O 4.828246 2.390675 -1.226909
 H 0.503000 -0.812926 0.580942
 H 0.496068 0.033406 -0.967620
 H 0.612568 0.949312 0.531723
 H 2.899258 -0.015867 0.976041
 H 4.107821 -1.284292 -0.644159
 H 1.627069 -1.154038 -2.483828
 H 2.240381 -2.636052 -1.747697
 H 3.208113 -1.774606 -2.948261
 H 2.622362 1.128686 -1.883928
 H 5.012198 0.880526 0.093053