17
charge = 0
 C 0.836346 0.130675 0.376623
 C 2.329302 0.099206 0.157357
 C 3.209852 1.127667 0.894772
 C 4.252359 0.015719 1.187322
 C 3.154266 -1.019396 0.824477
 C 5.373576 0.018797 0.203061
 O 6.540208 -0.021237 0.486066
 H 0.392743 1.039462 -0.039537
 H 0.599363 0.101848 1.444388
 H 0.347072 -0.724819 -0.097305
 H 2.545513 0.128722 -0.915246
 H 3.551598 2.002949 0.337971
 H 2.744334 1.467703 1.822589
 H 4.668402 -0.028036 2.193769
 H 2.670244 -1.394831 1.728882
 H 3.451265 -1.872901 0.211082
 H 5.059259 0.062361 -0.866182