15
charge = 0
 C 1.224678 0.174042 0.635553
 C 2.251487 -0.080344 -0.164555
 C 2.751773 -1.426911 -0.626190
 C 4.266824 -1.241621 -0.825068
 C 4.420996 0.233475 -1.094476
 O 3.520072 0.724585 -2.072217
 C 3.194540 0.928967 -0.691664
 H 0.616602 -0.621609 1.051373
 H 0.957325 1.190931 0.901277
 H 2.280612 -1.674640 -1.580704
 H 2.507609 -2.223843 0.077134
 H 4.668486 -1.857077 -1.633186
 H 4.815960 -1.490460 0.088415
 H 5.394811 0.713918 -1.070256
 H 3.168646 1.961968 -0.361024