13
charge = 0
 C 1.024660 -0.087117 0.022825
 C 2.341959 0.099775 0.061068
 C 3.063221 1.371482 0.137681
 C 4.384704 1.182005 0.038640
 C 4.681834 -0.274478 -0.047577
 O 4.261690 -0.998553 1.112261
 C 3.387821 -0.962278 -0.014395
 H 0.334477 0.747268 0.077581
 H 0.597529 -1.079833 -0.060458
 H 2.568644 2.323873 0.284276
 H 5.143066 1.953264 0.063200
 H 5.560813 -0.664435 -0.548902
 H 3.192493 -1.917381 -0.490091