15
charge = 0
 C 0.995025 -0.067901 0.268556
 C 2.304832 0.014929 0.070721
 C 3.198385 1.219319 0.049551
 C 4.397001 0.778461 -0.805516
 C 4.550880 -0.710358 -0.504977
 C 3.138060 -1.192079 -0.233175
 O 2.754389 -2.333105 -0.259680
 H 0.379299 0.803233 0.463832
 H 0.511611 -1.038716 0.231849
 H 3.535435 1.444056 1.068917
 H 2.703791 2.114491 -0.330676
 H 5.297846 1.355196 -0.592980
 H 4.160827 0.917075 -1.864475
 H 5.125845 -0.867676 0.416395
 H 5.026474 -1.300725 -1.288241