17
charge = 0
 C 0.931384 0.025933 0.140485
 C 2.446969 -0.020046 0.020967
 C 2.911112 -1.251427 -0.783733
 C 3.334280 -0.679975 -2.101536
 C 3.338374 0.649148 -2.100467
 C 2.988535 1.205966 -0.752346
 O 4.107279 1.833485 -0.139922
 H 0.549498 -0.845364 0.678282
 H 0.465164 0.036683 -0.849867
 H 0.603911 0.921170 0.675183
 H 2.884403 -0.008546 1.022530
 H 2.102754 -1.981844 -0.897617
 H 3.738006 -1.790671 -0.306578
 H 3.610106 -1.300142 -2.947896
 H 3.621856 1.282207 -2.933344
 H 2.232549 1.995632 -0.802691
 H 4.866320 1.255490 -0.262870