19
charge = 0
 C 0.956016 -0.024258 -0.138551
 C 2.463222 0.041789 -0.084650
 C 3.153592 1.074684 0.831591
 C 4.240237 0.023997 1.158724
 C 5.488896 0.147013 0.308559
 C 3.244961 -1.045852 0.676375
 O 3.809204 -2.121848 -0.026683
 H 0.531629 0.875315 -0.593045
 H 0.532095 -0.118065 0.866162
 H 0.612281 -0.879859 -0.728296
 H 2.879040 0.113293 -1.094289
 H 2.536652 1.317297 1.700725
 H 3.492095 2.005403 0.372333
 H 4.519836 -0.056106 2.212221
 H 5.248904 0.251452 -0.752112
 H 6.124382 -0.734336 0.413843
 H 6.065904 1.024727 0.611724
 H 2.645658 -1.406263 1.525275
 H 3.120078 -2.762783 -0.216317