17
charge = 0
 C 0.910176 -0.011077 0.389421
 C 2.359869 0.098810 -0.039041
 C 3.258085 1.159320 0.651467
 C 4.206343 0.055997 1.191580
 C 5.655585 0.068725 0.747585
 C 3.304688 -0.970079 0.507396
 O 3.328745 -2.162166 0.429771
 H 0.332871 0.846890 0.036718
 H 0.824203 -0.049203 1.478735
 H 0.456395 -0.918188 -0.014858
 H 2.425960 0.135226 -1.132088
 H 2.746220 1.730692 1.426914
 H 3.740010 1.856630 -0.035033
 H 4.148699 -0.057964 2.279713
 H 5.733360 0.181019 -0.337229
 H 6.151986 -0.863443 1.024824
 H 6.198193 0.896331 1.210656