17
charge = 0
 C 0.981306 0.048721 0.400289
 C 2.405469 0.059441 -0.150081
 C 3.262999 1.212759 0.375429
 C 3.935806 0.658741 1.638083
 C 4.247204 -0.788558 1.277346
 C 3.139641 -1.193945 0.321623
 O 2.867307 -2.318070 -0.003881
 H 0.422340 0.910850 0.029900
 H 0.974437 0.089163 1.493046
 H 0.461802 -0.860930 0.094414
 H 2.356903 0.034823 -1.242229
 H 2.681419 2.116576 0.568897
 H 4.030269 1.472339 -0.360679
 H 3.240019 0.692287 2.481833
 H 4.818408 1.230719 1.927774
 H 4.317110 -1.485168 2.113512
 H 5.189049 -0.860437 0.719145