15
charge = 0
 C 0.909871 0.192481 0.011022
 C 2.238398 0.110825 0.012471
 C 2.953052 -1.217005 0.015504
 C 4.436487 -1.128932 0.016062
 C 5.069246 0.032225 0.014543
 C 4.353004 1.329062 0.012182
 O 2.943898 1.268621 0.011268
 H 0.314105 -0.709715 0.011997
 H 0.407904 1.150589 0.008910
 H 2.620447 -1.794442 -0.854351
 H 2.619622 -1.790954 0.887360
 H 4.992823 -2.060765 0.017833
 H 6.153087 0.087343 0.015011
 H 4.650249 1.915528 -0.867317
 H 4.649028 1.918041 0.890416