17
charge = 0
 C 1.033214 0.005672 0.227611
 C 2.506999 0.132371 0.072891
 C 3.165447 1.275578 -0.132877
 C 4.658933 1.355392 -0.183838
 C 5.259855 0.055170 0.331526
 C 4.476210 -1.113797 -0.224380
 O 3.115667 -1.079625 0.178549
 H 0.551697 0.980960 0.167321
 H 0.792732 -0.447072 1.193801
 H 0.618989 -0.646204 -0.546513
 H 2.583638 2.184563 -0.226628
 H 5.009801 2.198801 0.420057
 H 5.005321 1.555110 -1.206016
 H 5.208167 0.024126 1.424238
 H 6.311955 -0.041212 0.050675
 H 4.863325 -2.071197 0.127429
 H 4.515650 -1.106044 -1.322055