17
charge = 0
 C 0.808941 -0.128622 0.009320
 C 2.319275 -0.131755 -0.111591
 C 2.999645 0.034006 1.231992
 C 2.846424 -1.362498 -0.893043
 C 3.470777 -0.736726 -2.102515
 C 3.326719 0.579776 -2.018243
 O 2.683150 1.028582 -0.918142
 H 0.474563 -0.974478 0.615403
 H 0.350387 -0.208672 -0.978587
 H 0.461609 0.794040 0.479039
 H 2.754886 -0.805355 1.887871
 H 2.677407 0.958382 1.716017
 H 4.083765 0.068770 1.105129
 H 2.031499 -2.048947 -1.148023
 H 3.566467 -1.932841 -0.295854
 H 3.956838 -1.265983 -2.907659
 H 3.649570 1.352922 -2.702893