17
charge = 0
 C 1.163676 0.213402 -0.233923
 C 2.572915 -0.040157 0.275558
 C 3.161501 -1.348630 -0.243949
 C 3.654581 -1.190065 -1.647289
 C 3.870540 0.008370 -2.173759
 C 3.659715 1.260131 -1.390617
 O 3.451806 1.036723 -0.017574
 H 0.477684 -0.533937 0.171630
 H 1.110352 0.157620 -1.323716
 H 0.819728 1.199861 0.083893
 H 2.546895 -0.065146 1.368370
 H 2.407225 -2.141175 -0.193426
 H 3.985221 -1.667840 0.405399
 H 3.833617 -2.085747 -2.234452
 H 4.205551 0.118596 -3.200874
 H 2.825634 1.836377 -1.826570
 H 4.544969 1.900535 -1.458792