17
charge = 0
 C 0.957342 -0.073087 0.265847
 C 2.354419 -0.039173 -0.297304
 C 2.823435 -1.332658 -0.984154
 C 3.468423 -0.792289 -2.225330
 C 3.179938 0.502695 -2.334331
 C 3.506414 1.486551 -3.389753
 O 2.439775 0.994738 -1.301654
 H 0.891620 -0.818850 1.061983
 H 0.238828 -0.336315 -0.513912
 H 0.678921 0.897264 0.681198
 H 3.067688 0.240351 0.488082
 H 1.978035 -1.994318 -1.216981
 H 3.504587 -1.898575 -0.343265
 H 4.019748 -1.370332 -2.951377
 H 4.080829 1.017109 -4.187443
 H 4.084210 2.317377 -2.975764
 H 2.590477 1.907813 -3.813462