17
charge = 0
 C 1.085515 -0.004799 -0.280626
 C 2.506875 0.100990 0.237785
 C 3.235721 1.353820 -0.227791
 C 3.429613 1.344231 -1.738387
 C 3.888553 -0.011932 -2.165355
 C 3.787686 -1.067648 -1.360445
 O 3.236892 -1.076788 -0.126836
 H 0.499328 0.859425 0.041766
 H 0.609197 -0.908012 0.104127
 H 1.066337 -0.047977 -1.371315
 H 2.493454 0.075982 1.330636
 H 4.213166 1.381296 0.262805
 H 2.682377 2.237245 0.101217
 H 4.166952 2.101430 -2.023186
 H 2.501897 1.626571 -2.252441
 H 4.343748 -0.153300 -3.137849
 H 4.159798 -2.049725 -1.630113