17
charge = 0
 C 1.137926 -0.060412 0.087805
 C 2.636692 0.081824 0.128826
 C 3.173291 1.255487 0.935012
 C 4.550408 0.748225 1.342250
 C 4.322521 -0.734072 1.456645
 C 5.048255 -1.632501 2.111906
 O 3.200907 -1.072176 0.765293
 H 0.692097 0.801248 -0.414716
 H 0.733067 -0.122476 1.100412
 H 0.848470 -0.961055 -0.456321
 H 3.033167 0.124804 -0.895978
 H 2.543754 1.412011 1.816219
 H 3.196930 2.182021 0.360186
 H 4.932390 1.180408 2.266624
 H 5.282677 0.948074 0.552701
 H 5.921308 -1.318935 2.666383
 H 4.784042 -2.681485 2.103654