19
charge = 0
 C 1.074847 -0.004045 0.037756
 C 2.572742 0.177384 -0.019555
 C 3.125074 1.297441 0.853332
 C 4.530855 0.801122 1.148270
 C 4.309887 -0.698974 1.298158
 C 5.499292 -1.562351 0.952022
 O 3.220061 -1.009777 0.432850
 H 0.566827 0.885545 -0.344123
 H 0.750851 -0.176705 1.067024
 H 0.766984 -0.859049 -0.567046
 H 2.872226 0.352600 -1.064405
 H 2.541596 1.370558 1.777183
 H 3.094679 2.268771 0.356682
 H 4.980078 1.248746 2.036469
 H 5.193402 0.995957 0.298350
 H 3.998263 -0.916753 2.331380
 H 5.830853 -1.362608 -0.069911
 H 5.242555 -2.620538 1.028979
 H 6.329448 -1.361413 1.634485