19
charge = 0
 C 1.064048 0.054588 0.094259
 C 2.578044 -0.021888 -0.049162
 C 3.071077 -1.430236 -0.391700
 C 2.751647 -1.793477 -1.837023
 C 3.235610 -0.696835 -2.768090
 O 2.704346 0.560997 -2.415211
 C 3.089652 0.942695 -1.113397
 H 0.701468 -0.668360 0.829718
 H 0.562578 -0.145910 -0.854438
 H 0.754799 1.050047 0.423655
 H 3.029740 0.279120 0.904002
 H 2.639096 -2.162853 0.296863
 H 4.158078 -1.468502 -0.250134
 H 1.673319 -1.923367 -1.970431
 H 3.223457 -2.742493 -2.110061
 H 2.927819 -0.882299 -3.799383
 H 4.337696 -0.649230 -2.747798
 H 2.688161 1.947218 -0.957890
 H 4.189156 1.003586 -1.058479