15
charge = 0
 C 1.035369 0.043832 -0.079850
 C 2.520631 0.121367 -0.084531
 C 3.224643 1.254022 -0.076652
 C 4.674385 1.218217 -0.082241
 C 5.285220 0.032788 -0.095318
 O 4.653360 -1.154044 -0.103916
 C 3.224231 -1.203265 -0.099310
 H 0.586123 1.037626 -0.069109
 H 0.669387 -0.507744 0.794664
 H 0.663010 -0.491643 -0.961648
 H 2.713354 2.211128 -0.065976
 H 5.264102 2.123620 -0.076064
 H 6.360426 -0.098803 -0.100397
 H 2.924207 -1.797503 0.776464
 H 2.917953 -1.781187 -0.983797