15
charge = 0
 C 1.062457 0.014368 0.140369
 C 2.545553 -0.011203 0.054771
 C 3.325982 -1.091241 -0.008278
 C 4.781382 -0.762675 -0.086283
 C 4.797028 0.760683 -0.061564
 O 5.773668 1.455184 -0.106144
 C 3.357832 1.249653 0.029446
 H 0.645325 -0.993976 0.147024
 H 0.629315 0.560220 -0.704307
 H 0.729898 0.530154 1.047242
 H 2.951124 -2.108732 -0.003961
 H 5.272308 -1.121461 -0.998099
 H 5.372651 -1.150846 0.750897
 H 3.129912 1.899080 -0.824009
 H 3.230466 1.869383 0.924886