17
charge = 0
 C 0.963266 -0.015517 0.088230
 C 2.448851 -0.054349 0.049640
 C 3.232769 -1.130140 -0.032958
 C 4.688833 -0.771744 0.014287
 C 4.677909 0.734013 -0.294924
 O 4.876470 0.977274 -1.674745
 C 3.285437 1.193866 0.158072
 H 0.530936 -1.014675 0.014193
 H 0.563447 0.594597 -0.728613
 H 0.608853 0.442061 1.018288
 H 2.869986 -2.151094 -0.085330
 H 5.311693 -1.308658 -0.706770
 H 5.109300 -0.972629 1.008278
 H 5.483292 1.272623 0.206451
 H 4.195222 0.492840 -2.152639
 H 2.927788 2.022167 -0.461347
 H 3.297039 1.554643 1.195198