17
charge = 0
 C 0.984623 0.084805 0.213277
 C 2.477290 0.089547 -0.055089
 C 2.772488 0.070055 -1.542573
 C 3.245526 1.205220 0.717490
 C 3.987639 0.120089 1.480964
 O 4.825141 0.137014 2.331901
 C 3.258148 -0.994785 0.748824
 H 0.504029 0.959564 -0.234240
 H 0.771983 0.098862 1.285902
 H 0.514169 -0.807799 -0.209068
 H 2.341082 0.944415 -2.038381
 H 2.351222 -0.822962 -2.013210
 H 3.848857 0.073478 -1.735863
 H 2.634300 1.849142 1.355749
 H 3.898908 1.839646 0.112353
 H 2.654245 -1.627239 1.405262
 H 3.918863 -1.638650 0.161893