19
charge = 0
 C 0.800536 -0.034537 0.268164
 C 2.291555 0.007993 0.003938
 C 2.579031 0.035978 -1.486965
 C 3.080104 1.097590 0.780451
 C 4.095727 0.044790 1.237204
 O 5.283963 0.163984 0.483641
 C 3.135076 -1.059835 0.752302
 H 0.302485 0.842702 -0.156554
 H 0.586293 -0.054834 1.340380
 H 0.347026 -0.923350 -0.181685
 H 2.120703 0.913897 -1.952954
 H 2.172687 -0.854605 -1.977010
 H 3.653021 0.072324 -1.679716
 H 2.510926 1.514891 1.613879
 H 3.503867 1.913285 0.191929
 H 4.323864 0.035851 2.309645
 H 5.830906 -0.605871 0.661687
 H 2.586707 -1.524045 1.575951
 H 3.585123 -1.844787 0.139012