17
charge = 0
 C 1.069971 -0.197079 0.387809
 C 2.521237 0.037504 0.074547
 C 3.209535 1.264095 0.687666
 C 4.172328 0.249185 1.304650
 C 5.567436 0.208996 0.733005
 O 6.217426 -0.989320 1.074928
 O 3.394688 -0.857341 0.799896
 H 0.446200 0.523074 -0.149212
 H 0.883213 -0.092326 1.459010
 H 0.770250 -1.202211 0.082294
 H 2.695290 -0.060379 -1.004182
 H 2.593196 1.802154 1.407729
 H 3.652551 1.972010 -0.013824
 H 4.216332 0.218837 2.398450
 H 6.163887 1.031239 1.139646
 H 5.516220 0.336644 -0.359376
 H 5.617952 -1.703382 0.830973