17
charge = 0
 C 0.946544 -0.223317 0.450428
 C 2.283404 0.208965 -0.089914
 C 2.997550 1.364483 0.619240
 C 4.066546 0.317734 0.976876
 O 3.342748 -0.704424 0.261557
 C 5.434454 0.536249 0.440820
 C 6.529824 0.543922 1.186971
 H 0.176802 0.509823 0.192498
 H 0.981855 -0.324459 1.537950
 H 0.656724 -1.186819 0.024967
 H 2.229621 0.321875 -1.179526
 H 2.463838 1.789800 1.469172
 H 3.346507 2.168723 -0.028110
 H 4.121899 0.080561 2.046004
 H 5.499390 0.702754 -0.632879
 H 6.482113 0.365227 2.256987
 H 7.509670 0.728022 0.762081