15
charge = 0
 C 1.012707 -0.052396 0.315122
 C 2.464097 0.130265 -0.027680
 C 3.276710 1.168865 0.753168
 C 4.191321 -0.017656 1.108794
 O 3.292139 -0.942045 0.473901
 C 5.520731 -0.001755 0.520489
 C 6.621864 0.026760 0.042775
 H 0.428170 0.797080 -0.049307
 H 0.876925 -0.133806 1.396038
 H 0.621437 -0.959477 -0.151142
 H 2.591773 0.220075 -1.113460
 H 2.753752 1.586065 1.613822
 H 3.739483 1.965751 0.175308
 H 4.276560 -0.231459 2.179659
 H 7.597130 0.042742 -0.383396