15
charge = 0
 C 1.070044 -0.045179 0.235605
 C 2.559215 0.115317 0.043415
 C 3.291131 1.192046 0.849609
 C 4.120313 0.025194 1.386350
 O 3.316315 -0.938019 0.677757
 C 2.885299 0.103303 -1.435518
 O 3.120281 1.076309 -2.094828
 H 0.841737 -0.114088 1.300882
 H 0.713006 -0.956728 -0.251032
 H 0.537760 0.809328 -0.189476
 H 2.666938 1.689343 1.590991
 H 3.813295 1.933444 0.247370
 H 4.081129 -0.141319 2.465605
 H 5.162559 -0.000750 1.054393
 H 2.894769 -0.918699 -1.874393