15
charge = 0
 C 1.012118 0.023189 0.350136
 C 2.464607 0.173694 -0.000735
 C 3.301045 1.190428 0.788632
 C 4.162921 -0.018283 1.149243
 O 3.270876 -0.924699 0.494999
 C 5.543489 -0.066412 0.545461
 O 6.294344 0.868050 0.512511
 H 0.447316 0.889162 -0.006013
 H 0.881555 -0.059028 1.431661
 H 0.595417 -0.871611 -0.117502
 H 2.589530 0.261761 -1.086841
 H 2.774954 1.636024 1.632169
 H 3.810002 1.967127 0.220066
 H 4.262523 -0.240375 2.221373
 H 5.818613 -1.058717 0.126239