19
charge = 0
 C 1.082077 -0.057839 -0.164962
 C 2.591495 0.012948 -0.065590
 C 3.122878 1.098356 0.863702
 C 4.531880 0.609858 1.178452
 O 4.535783 -0.794777 0.960214
 C 3.249460 -1.224534 0.537276
 C 3.404913 -2.405217 -0.388421
 H 0.668049 0.868580 -0.570055
 H 0.635213 -0.219049 0.820804
 H 0.759825 -0.873903 -0.816574
 H 3.019192 0.160757 -1.065949
 H 2.511461 1.132301 1.771376
 H 3.111039 2.094427 0.417264
 H 4.827553 0.821624 2.211219
 H 5.275718 1.065992 0.514948
 H 2.662568 -1.532901 1.420607
 H 3.976694 -2.120888 -1.275103
 H 2.427853 -2.779653 -0.703832
 H 3.932948 -3.218153 0.113344