15
charge = 0
 C 0.828904 -0.128433 0.284477
 C 2.326579 -0.038434 0.126273
 C 3.101160 1.083027 0.871395
 C 4.184251 0.040340 1.077180
 O 5.380805 0.058666 1.050937
 C 3.205157 -1.095454 0.865394
 O 3.642649 -2.252883 0.242658
 H 0.326621 0.724496 -0.178544
 H 0.551204 -0.146359 1.342448
 H 0.442173 -1.038349 -0.180616
 H 2.614968 -0.034398 -0.928800
 H 2.614941 1.360962 1.810796
 H 3.388010 1.982146 0.327551
 H 2.706169 -1.345539 1.812674
 H 4.564110 -2.119389 -0.007013