17
charge = 0
 C 1.061714 -0.027740 0.140706
 C 2.389472 -0.040870 0.105842
 C 3.203755 -1.298442 0.068963
 C 4.186178 -1.244436 -1.097564
 O 4.983104 -0.085062 -1.051363
 C 4.208191 1.086906 -1.137255
 C 3.227338 1.199121 0.026443
 H 0.487380 -0.947539 0.175761
 H 0.504857 0.903398 0.144249
 H 2.564696 -2.181203 -0.015311
 H 3.782855 -1.388571 0.996148
 H 3.631658 -1.280088 -2.048421
 H 4.872131 -2.093468 -1.070923
 H 3.654137 1.100635 -2.088952
 H 4.910059 1.923252 -1.139307
 H 2.605029 2.090409 -0.088034
 H 3.808334 1.309808 0.950208