17
charge = 0
 C 0.953357 0.070991 -0.141800
 C 2.443756 0.085333 -0.057287
 C 3.165464 1.201206 -0.111499
 C 4.653433 1.213459 0.028388
 O 5.184329 -0.011818 0.468203
 C 4.616926 -1.105520 -0.213852
 C 3.138136 -1.236752 0.096406
 H 0.544443 1.078736 -0.231155
 H 0.517808 -0.397039 0.747921
 H 0.613792 -0.516878 -1.001426
 H 2.681697 2.164140 -0.254809
 H 4.956651 1.960313 0.768797
 H 5.119139 1.508168 -0.928899
 H 5.172605 -1.990015 0.103480
 H 4.758971 -0.986763 -1.299420
 H 2.994640 -1.618074 1.115150
 H 2.685265 -1.976156 -0.575188