15
charge = 0
 C 1.054933 0.048255 0.192930
 C 2.531407 0.010600 0.060404
 C 3.307482 -1.077432 -0.028709
 C 4.721541 -0.704273 -0.148246
 O 5.669383 -1.445102 -0.245728
 C 4.785166 0.818976 -0.126575
 C 3.336707 1.279669 0.011810
 H 0.620213 -0.950937 0.213537
 H 0.609427 0.606434 -0.637028
 H 0.765260 0.574628 1.108295
 H 2.972768 -2.106892 -0.017460
 H 5.263611 1.168318 -1.043789
 H 5.420876 1.137279 0.702129
 H 3.007644 1.905514 -0.824685
 H 3.163771 1.872854 0.916214