13
charge = 0
 C 1.045952 -0.052002 0.029156
 C 2.523056 -0.150344 0.030167
 C 3.296572 -1.240598 0.030756
 C 4.719763 -0.795793 0.031761
 O 5.705446 -1.487324 0.032410
 C 4.681827 0.709789 0.031504
 C 3.401141 1.068139 0.030666
 H 0.573377 -1.033925 0.028916
 H 0.698441 0.503856 -0.848298
 H 0.697246 0.504002 0.906044
 H 2.993105 -2.277185 0.030606
 H 5.564718 1.331488 0.031993
 H 3.005754 2.076697 0.030310