15
charge = 0
 C 0.993794 0.142324 0.071039
 C 2.477032 0.074434 -0.001108
 C 3.257612 -1.011202 -0.086165
 C 4.705077 -0.603322 -0.066943
 O 5.532150 -1.175255 -1.057407
 C 4.627236 0.901247 -0.055874
 C 3.346051 1.270444 0.016858
 H 0.544465 -0.848677 -0.001114
 H 0.591440 0.762995 -0.736072
 H 0.667159 0.598094 1.011116
 H 2.935719 -2.043844 -0.121420
 H 5.141778 -0.923849 0.891022
 H 5.163033 -0.934095 -1.912174
 H 5.500630 1.539016 -0.071462
 H 2.971745 2.285481 0.083093