15
charge = 0
 C 0.887995 -0.128556 -0.007917
 C 2.379260 -0.070196 -0.016551
 C 3.066698 1.072033 -0.030040
 C 4.560285 1.116290 -0.038596
 O 5.203470 -0.166578 -0.031012
 C 4.461244 -1.283818 -0.017481
 C 3.128115 -1.321482 -0.009962
 H 0.446370 0.868711 -0.013946
 H 0.526354 -0.661587 0.877265
 H 0.516770 -0.676451 -0.879959
 H 2.561841 2.033170 -0.035473
 H 4.939650 1.663904 0.834788
 H 4.930021 1.648690 -0.925417
 H 5.089390 -2.167135 -0.013326
 H 2.621838 -2.277196 0.000929