15
charge = 0
 C 1.015303 -0.182250 0.022770
 C 2.495144 -0.064715 0.038357
 C 3.201780 1.052034 -0.140124
 C 4.684736 1.062462 0.030760
 O 5.140553 -0.175255 0.550517
 C 4.479001 -1.234254 -0.046223
 O 3.104695 -1.260443 0.271600
 H 0.551383 0.789093 -0.144614
 H 0.661305 -0.581878 0.977251
 H 0.691693 -0.874548 -0.759181
 H 2.691243 1.980654 -0.360699
 H 4.986246 1.820285 0.759529
 H 5.206033 1.291074 -0.912213
 H 4.906704 -2.158195 0.339296
 H 4.573371 -1.183275 -1.142426