17
charge = 0
 C 1.175220 -0.090888 0.135627
 C 2.673705 0.031747 -0.057052
 C 3.044632 0.201768 -1.519717
 C 3.300715 1.123539 0.825237
 O 4.525328 0.561177 1.239033
 C 4.210731 -0.783806 1.445475
 O 3.319509 -1.156241 0.428490
 H 0.668961 0.828870 -0.169967
 H 0.936067 -0.285759 1.183019
 H 0.780442 -0.912110 -0.465716
 H 2.532004 1.063289 -1.955428
 H 2.761843 -0.689448 -2.083340
 H 4.122250 0.344976 -1.620314
 H 2.660859 1.338895 1.693392
 H 3.504494 2.050374 0.288761
 H 3.737804 -0.920132 2.433846
 H 5.123237 -1.379970 1.378663