17
charge = 0
 C 1.002868 -0.423854 -1.255275
 C 2.248857 -0.427074 -0.418282
 C 2.117267 -0.034146 1.033644
 C 1.424535 -1.054374 1.923894
 O 0.049440 -1.234127 1.650415
 C 3.384989 -1.260093 -0.811271
 O 3.393112 0.135362 -1.064808
 H 0.268361 -1.123406 -0.853773
 H 1.237611 -0.692109 -2.286227
 H 0.553908 0.573868 -1.256404
 H 1.593478 0.928379 1.103415
 H 3.125256 0.135234 1.424854
 H 1.574352 -0.771353 2.974440
 H 1.881434 -2.038236 1.787917
 H -0.405388 -0.407530 1.831505
 H 3.305913 -1.893882 -1.691726
 H 4.093796 -1.599148 -0.057818