17
charge = 0
 C 0.838935 0.009679 0.087373
 C 2.345007 0.068405 0.073410
 C 2.968555 1.213881 0.855533
 C 4.367330 0.690740 1.119587
 O 5.149496 0.981888 -0.025492
 C 4.111296 -0.807597 1.297771
 O 2.863216 -1.102045 0.701701
 H 0.419625 0.886284 -0.412260
 H 0.466534 -0.020566 1.114300
 H 0.484147 -0.881662 -0.433301
 H 2.706286 0.106241 -0.964380
 H 2.433009 1.353903 1.799422
 H 2.989064 2.159084 0.312546
 H 4.823175 1.131726 2.014421
 H 5.991723 0.527285 0.054331
 H 4.070566 -1.082405 2.358159
 H 4.907848 -1.395740 0.823358