17
charge = 0
 C 0.822933 0.000980 0.240192
 C 2.308786 0.124050 -0.067098
 C 3.021050 1.141060 0.839999
 O 3.551665 0.097953 1.666742
 C 3.152521 -0.901392 0.724122
 C 2.541197 0.173100 -1.538787
 C 3.057694 1.179146 -2.230055
 H 0.661697 -0.093954 1.316976
 H 0.395572 -0.880149 -0.246800
 H 0.279274 0.879475 -0.116069
 H 2.376542 1.824408 1.401315
 H 3.821648 1.709637 0.354786
 H 2.604134 -1.722537 1.197143
 H 4.009843 -1.300146 0.169487
 H 2.221701 -0.719688 -2.076640
 H 3.384977 2.098467 -1.756152
 H 3.169965 1.120688 -3.306261