19
charge = 0
 C 0.952845 0.097004 0.051760
 C 2.451782 0.012408 -0.016048
 C 3.135245 -0.749263 -1.109408
 O 2.311669 -1.349129 -2.059696
 C 3.273821 0.751213 -1.050910
 C 2.582012 1.586499 -2.094743
 C 4.602952 1.299267 -0.600773
 H 0.554144 -0.707019 0.675694
 H 0.495594 -0.002420 -0.931911
 H 0.630859 1.046629 0.487785
 H 2.931529 -0.068816 0.955653
 H 4.010532 -1.339552 -0.839877
 H 2.759251 -1.320191 -2.909423
 H 1.684760 1.104221 -2.481357
 H 3.252157 1.773864 -2.940306
 H 2.294075 2.559942 -1.686471
 H 5.083891 0.636044 0.122606
 H 4.482826 2.277188 -0.123435
 H 5.286844 1.424311 -1.446739