17
charge = 0
 C 1.380610 -0.204171 0.377846
 C 2.769900 -0.117847 -0.186849
 C 3.048113 -0.499405 -1.593467
 O 1.983784 -0.970393 -2.349330
 C 3.106581 0.963707 -1.185289
 C 4.387028 1.689779 -1.187383
 C 5.467444 1.402354 -0.468327
 H 1.183380 -1.201408 0.779428
 H 0.632081 -0.005698 -0.389885
 H 1.247142 0.518403 1.186625
 H 3.561780 -0.357358 0.516196
 H 4.012012 -0.960500 -1.803277
 H 2.135222 -0.731252 -3.267492
 H 2.247021 1.532602 -1.527099
 H 4.441155 2.527312 -1.880189
 H 5.488815 0.590192 0.250746
 H 6.377431 1.980174 -0.574066