15
charge = 0
 C 0.935276 0.057348 -0.005266
 C 2.431892 -0.022596 -0.079403
 C 3.111233 -0.758437 -1.174249
 O 2.306102 -1.383196 -2.114292
 C 3.174659 0.757396 -1.153724
 C 4.400353 1.428667 -0.863131
 C 5.439626 1.978982 -0.611222
 H 0.530407 -0.796608 0.543568
 H 0.491249 0.049188 -1.001022
 H 0.621601 0.968938 0.508620
 H 2.945312 -0.058854 0.875556
 H 4.035197 -1.277289 -0.929828
 H 2.770766 -1.389938 -2.955543
 H 2.531273 1.237656 -1.885083
 H 6.356033 2.471454 -0.388482