15
charge = 0
 C 0.816341 0.013585 0.133877
 C 2.320935 -0.058151 0.083579
 C 3.146687 0.929447 0.913135
 O 3.919427 -0.131643 1.494903
 C 3.031547 -1.122689 0.949355
 C 3.702568 -2.218715 0.280553
 C 4.236252 -3.131698 -0.287857
 H 0.449734 0.902908 -0.385201
 H 0.457490 0.056522 1.165929
 H 0.363990 -0.858180 -0.345683
 H 2.677643 -0.109672 -0.946353
 H 2.565099 1.465767 1.673371
 H 3.774488 1.639472 0.369008
 H 2.374868 -1.524802 1.733917
 H 4.718633 -3.938651 -0.787043