17
charge = 0
 C 0.920755 0.322655 -0.091297
 C 2.418720 0.217162 -0.096106
 C 3.117773 -0.717025 -1.024774
 O 2.324292 -1.488896 -1.868284
 C 3.224633 0.766678 -1.244591
 C 4.517014 1.484414 -0.996162
 O 4.354954 2.772989 -0.434325
 H 0.476924 -0.423321 0.572906
 H 0.512982 0.157021 -1.089081
 H 0.604880 1.310658 0.253076
 H 2.887952 0.327804 0.877224
 H 4.002619 -1.226066 -0.644910
 H 2.788771 -1.601530 -2.701573
 H 2.631114 1.132595 -2.080433
 H 5.102567 1.539601 -1.925525
 H 5.115790 0.925753 -0.271657
 H 3.781669 3.283057 -1.011977