17
charge = 0
 C 0.629765 0.183412 -0.672574
 C 2.006650 0.567662 -0.209732
 C 3.214242 -0.251000 -0.573159
 O 2.999615 -1.368338 -1.373615
 C 3.059596 1.127068 -1.137092
 C 2.787515 1.331130 -2.597446
 O 3.954138 2.052268 -0.581314
 H 0.135365 -0.439003 0.077338
 H 0.661488 -0.391948 -1.597562
 H 0.005105 1.065669 -0.836761
 H 2.055202 0.982566 0.792841
 H 3.977206 -0.363091 0.194217
 H 3.777251 -1.499571 -1.922813
 H 2.201976 0.512839 -3.015731
 H 3.732482 1.396684 -3.143200
 H 2.237372 2.262249 -2.765946
 H 3.489930 2.887424 -0.469761