15
charge = 0
 C 0.944351 -0.016140 0.098788
 C 2.445786 -0.035027 -0.030834
 C 3.278484 1.026495 0.698122
 O 4.101774 0.023542 1.314143
 C 3.242111 -1.019897 0.856914
 C 3.965280 -2.108054 0.116885
 O 3.466129 -3.164485 -0.156051
 H 0.515178 0.822194 -0.456269
 H 0.641713 0.080587 1.144788
 H 0.506109 -0.935518 -0.296342
 H 2.739896 -0.123084 -1.080138
 H 2.714439 1.596115 1.446097
 H 3.863887 1.714470 0.082579
 H 2.644330 -1.461064 1.664614
 H 4.998543 -1.842324 -0.197505