17
charge = 0
 C 1.051746 0.063806 0.277655
 C 2.533542 -0.117171 -0.013885
 C 2.920575 -1.561665 -0.373016
 O 3.051137 -1.622081 -1.787348
 C 3.436401 -0.357297 -2.243231
 C 2.315821 0.585231 -2.525508
 C 3.063031 0.657334 -1.216512
 H 0.766141 -0.479267 1.182258
 H 0.434491 -0.312546 -0.541263
 H 0.804376 1.117510 0.426874
 H 3.099038 0.198325 0.868047
 H 2.165553 -2.293870 -0.076447
 H 3.874496 -1.836571 0.097488
 H 4.362103 -0.333221 -2.808256
 H 1.318583 0.163772 -2.540624
 H 2.485325 1.388764 -3.232850
 H 3.685850 1.524945 -1.038592