15
charge = 0
 C 1.133348 0.010257 0.246144
 C 2.433978 -0.002968 -0.028846
 C 3.298218 1.214947 -0.211792
 O 4.609481 0.765370 -0.489469
 C 4.682143 -0.646410 -0.504722
 C 3.302792 -1.171409 -0.212380
 C 2.967116 -2.455785 -0.140730
 H 0.589335 0.940863 0.361022
 H 0.567144 -0.905904 0.365987
 H 3.309947 1.836479 0.691783
 H 2.942729 1.836585 -1.042496
 H 5.405753 -0.982052 0.248012
 H 5.038239 -0.982228 -1.486204
 H 3.698690 -3.240686 -0.295342
 H 1.951986 -2.768070 0.074422