15
charge = 0
 C 0.988959 -0.047680 0.311848
 C 2.447419 -0.010364 0.033062
 C 3.258896 -1.016922 -0.290590
 O 4.557933 -0.691487 -0.501528
 C 4.679639 0.686829 -0.122440
 C 3.259822 1.255004 -0.048198
 O 2.893366 2.063830 -1.156512
 H 0.586280 -1.055354 0.192938
 H 0.440932 0.618742 -0.360784
 H 0.769541 0.282440 1.332701
 H 3.028905 -2.067039 -0.420022
 H 5.295577 1.204869 -0.858146
 H 5.168662 0.720514 0.855724
 H 3.142322 1.908897 0.819385
 H 2.791627 1.482222 -1.916806