15
charge = 0
 C 1.115836 0.052354 0.260850
 C 2.588903 -0.047502 -0.064313
 C 2.871564 -0.094420 -1.548752
 O 3.359143 0.994399 0.598484
 C 4.110430 0.078341 1.401496
 C 3.358962 -1.077415 0.766162
 O 3.358133 -2.262958 0.861601
 H 0.701498 0.960155 -0.184099
 H 0.952247 0.091342 1.339124
 H 0.580707 -0.809942 -0.142225
 H 2.487760 0.810812 -2.025200
 H 2.382470 -0.960585 -1.999237
 H 3.943380 -0.158674 -1.743789
 H 3.943118 0.207605 2.476645
 H 5.186250 0.103688 1.195052