15
charge = 0
 C 1.041870 0.081220 0.040248
 C 2.523609 0.074784 -0.117000
 C 3.204932 1.205395 -0.267591
 O 4.558291 1.306397 -0.418611
 C 5.245046 0.133690 -0.410837
 C 4.695502 -1.064577 -0.269605
 C 3.221890 -1.253885 -0.099550
 H 0.632757 1.092623 0.013955
 H 0.747716 -0.381404 0.989189
 H 0.562183 -0.501773 -0.754143
 H 2.740247 2.183401 -0.285678
 H 6.306810 0.302168 -0.535571
 H 5.350454 -1.927409 -0.279843
 H 2.999085 -1.783366 0.839266
 H 2.814901 -1.902872 -0.889827