15
charge = 0
 C 1.030427 0.047440 0.081236
 C 2.493274 0.083359 -0.157921
 C 3.324769 -0.934865 -0.334955
 O 4.634540 -0.577780 -0.536225
 C 4.698974 0.797411 -0.492424
 C 5.847965 1.437026 -0.656114
 C 3.313943 1.340052 -0.243151
 H 0.656622 -0.977674 0.102146
 H 0.485554 0.589195 -0.699323
 H 0.770664 0.520593 1.034288
 H 3.141263 -1.999484 -0.346900
 H 6.768396 0.895945 -0.828911
 H 5.877314 2.516820 -0.618228
 H 2.984304 1.998858 -1.054699
 H 3.269501 1.930203 0.679371