19
charge = 0
 C 0.855131 -0.018777 0.075149
 C 2.365335 -0.018262 -0.043721
 C 2.745584 -0.032274 -1.516779
 O 4.133433 -0.068388 -1.773831
 C 3.106140 1.074051 0.773477
 C 4.040853 -0.002818 1.357079
 C 3.115719 -1.093571 0.785317
 H 0.416573 0.860278 -0.408216
 H 0.546151 -0.010889 1.123205
 H 0.421685 -0.908564 -0.392626
 H 2.280795 0.831597 -2.015968
 H 2.337452 -0.935110 -1.981813
 H 4.514442 0.767947 -1.495317
 H 2.457442 1.526664 1.526481
 H 3.570733 1.889479 0.209208
 H 4.173814 0.009203 2.439735
 H 5.025589 -0.011098 0.888931
 H 2.472969 -1.549136 1.541899
 H 3.600763 -1.884102 0.210592