17
charge = 0
 C 0.956101 0.085274 0.503619
 C 2.346335 -0.011468 -0.097996
 C 2.637628 1.187812 -0.982753
 O 3.963184 1.190067 -1.490775
 C 4.382967 -0.005873 -1.961351
 C 3.766406 -1.169073 -1.769155
 C 2.543322 -1.284307 -0.915719
 H 0.850530 0.970885 1.135673
 H 0.734711 -0.791132 1.117560
 H 0.194353 0.139709 -0.280392
 H 3.088891 -0.004972 0.709123
 H 2.528270 2.125029 -0.433834
 H 1.937314 1.199035 -1.830298
 H 5.304907 0.091575 -2.523057
 H 4.197171 -2.054779 -2.219848
 H 2.630896 -2.145661 -0.244402
 H 1.652304 -1.474042 -1.530105