17
charge = 0
 C 0.889408 0.082464 0.076710
 C 2.398675 0.063055 -0.094470
 C 2.932718 -1.305352 -0.488608
 O 2.564042 -1.640948 -1.808154
 C 3.070962 -0.680925 -2.710399
 C 2.545734 0.694380 -2.368773
 O 2.849351 1.034099 -1.032753
 H 0.604280 -0.527688 0.937132
 H 0.376362 -0.320069 -0.798229
 H 0.543682 1.103015 0.250674
 H 2.868980 0.355750 0.849652
 H 2.529073 -2.083437 0.163131
 H 4.029405 -1.305199 -0.399081
 H 2.755111 -0.980488 -3.712234
 H 4.171291 -0.679331 -2.672634
 H 1.462081 0.731468 -2.544772
 H 3.017346 1.454487 -2.996303