15
charge = 0
 C 1.065926 0.125957 0.051450
 C 2.373680 0.102468 -0.169427
 C 3.211577 -1.141400 -0.151382
 O 4.162530 -1.167145 -1.195247
 C 4.956593 -0.005654 -1.145651
 C 4.092410 1.218554 -1.308519
 O 3.067595 1.267095 -0.322829
 H 0.526201 -0.793835 0.231585
 H 0.524999 1.062962 0.085991
 H 2.582589 -2.024061 -0.260284
 H 3.735319 -1.200180 0.817257
 H 5.682168 -0.071199 -1.959189
 H 5.502441 0.040071 -0.190390
 H 3.632483 1.217971 -2.304741
 H 4.675907 2.132975 -1.188114