13
charge = 0
 C 0.851026 -0.071495 -0.005974
 C 2.177429 -0.055373 -0.005748
 C 2.944826 1.251502 -0.023666
 O 4.358121 1.177838 -0.021473
 C 4.910576 -0.055167 -0.004088
 C 4.219646 -1.184604 0.010967
 O 2.852803 -1.231176 0.010714
 H 0.294740 0.855899 -0.018985
 H 0.306852 -1.006050 0.006743
 H 2.648535 1.837409 0.851156
 H 2.649949 1.812402 -0.915205
 H 5.990601 -0.037370 -0.003572
 H 4.673817 -2.162415 0.024743