15
charge = 0
 C 1.145119 0.015405 -0.105954
 C 2.620686 0.061374 0.034540
 C 3.319014 1.150525 0.363530
 O 4.682469 1.202830 0.434836
 C 5.284416 0.086419 -0.184275
 C 4.567512 -1.183175 0.215484
 O 3.220184 -1.144242 -0.211228
 H 0.709228 0.996176 0.084928
 H 0.710153 -0.705717 0.592266
 H 0.864356 -0.297481 -1.116203
 H 2.841281 2.091098 0.597427
 H 6.327946 0.065006 0.134292
 H 5.244219 0.203274 -1.274816
 H 4.604023 -1.297919 1.305877
 H 5.025285 -2.057374 -0.250416