17
charge = 0
 C 0.990949 -0.052644 0.068038
 C 2.484729 0.060603 -0.127555
 C 2.828476 0.044132 -1.608317
 O 4.197395 0.211982 -1.892670
 C 3.206917 1.126145 0.719049
 C 3.978887 -0.057004 1.298879
 O 3.187035 -0.996454 0.563842
 H 0.474368 0.814632 -0.352239
 H 0.753297 -0.117251 1.131015
 H 0.607242 -0.952626 -0.420097
 H 2.216157 0.793296 -2.130035
 H 2.554418 -0.939620 -1.999871
 H 4.415591 1.143613 -1.823177
 H 2.555004 1.640750 1.424746
 H 3.797123 1.866410 0.177926
 H 3.892057 -0.207179 2.379354
 H 5.032253 -0.107075 1.007311