15
charge = 0
 C 0.933502 -0.089835 0.328350
 C 2.344729 -0.147671 -0.197093
 C 2.762217 1.131567 -0.902045
 O 4.096926 1.052940 -1.360222
 C 4.356749 -0.142954 -1.956788
 C 3.560787 -1.205624 -1.859312
 O 2.427344 -1.238311 -1.105848
 H 0.841003 0.677601 1.099568
 H 0.656128 -1.050841 0.763812
 H 0.231242 0.135643 -0.477467
 H 3.055101 -0.333347 0.620580
 H 2.709045 1.983684 -0.222754
 H 2.090174 1.307921 -1.752315
 H 5.272645 -0.155200 -2.529915
 H 3.768007 -2.131602 -2.376542