15
charge = 0
 C 0.928694 -0.070476 -0.072182
 C 2.436357 -0.125829 0.059885
 C 3.021682 0.977513 0.937894
 O 4.265918 0.476535 1.425759
 C 4.291105 -0.875580 1.363910
 O 5.215949 -1.515032 1.760063
 C 2.999980 -1.362477 0.743781
 H 0.602963 0.876611 -0.510279
 H 0.447504 -0.171905 0.904856
 H 0.558826 -0.874293 -0.712208
 H 2.890738 -0.043877 -0.933776
 H 2.369588 1.193420 1.792547
 H 3.219560 1.907237 0.403636
 H 2.348407 -1.701352 1.557948
 H 3.187149 -2.214885 0.092556