17
charge = 0
 C 0.933036 0.243565 -0.279879
 C 2.395925 0.380162 -0.000611
 O 3.228643 -0.700639 -0.405620
 C 3.392257 0.551719 -1.055178
 C 4.697880 1.266491 -0.830243
 C 4.604549 2.719027 -1.169287
 C 5.296700 3.321331 -2.125747
 H 0.469431 -0.449836 0.426278
 H 0.767684 -0.135046 -1.289951
 H 0.431818 1.210141 -0.181809
 H 2.652405 0.773746 0.984112
 H 3.029690 0.566459 -2.083648
 H 5.479404 0.790973 -1.431240
 H 4.975187 1.137762 0.222063
 H 3.898545 3.302186 -0.580315
 H 6.009206 2.775852 -2.737201
 H 5.182440 4.379727 -2.329324