15
charge = 0
 C 0.877879 -0.019687 -0.036331
 C 2.343665 0.220471 0.131062
 O 3.223735 -0.673336 -0.549086
 C 3.196967 0.682432 -0.957140
 C 4.462625 1.466241 -0.707998
 C 4.254187 2.898972 -0.835011
 C 4.059411 4.077701 -0.949348
 H 0.554833 -0.867719 0.572370
 H 0.639017 -0.234931 -1.079139
 H 0.310152 0.859298 0.279231
 H 2.671619 0.458182 1.143443
 H 2.734059 0.854018 -1.928451
 H 5.229405 1.143231 -1.421027
 H 4.839925 1.225792 0.290629
 H 3.894432 5.124526 -1.047214