17
charge = 0
 C 0.548047 -0.121915 -0.506053
 C 1.926050 -0.036510 0.066895
 O 2.859425 -1.015432 -0.383578
 C 3.089470 0.359387 -0.721634
 C 4.315495 0.991335 -0.130254
 C 5.592343 0.312836 -0.606031
 O 5.748894 -0.976314 -0.064901
 H -0.009319 -0.941635 -0.046382
 H 0.587403 -0.295123 -1.582763
 H -0.000366 0.805043 -0.319342
 H 1.981307 0.146571 1.140053
 H 2.923080 0.562809 -1.780268
 H 4.276612 0.940591 0.962141
 H 4.333811 2.049488 -0.413557
 H 6.462428 0.893403 -0.288507
 H 5.606244 0.284384 -1.707188
 H 4.892166 -1.416518 -0.106731