17
charge = 0
 C 0.798265 -0.238325 -0.074390
 C 2.288139 -0.288860 0.041352
 O 3.009312 -0.927655 -1.021062
 C 3.226514 0.467752 -0.789508
 C 2.789599 1.405376 -1.874273
 C 4.612846 0.752923 -0.246220
 O 5.078131 -0.251850 0.611194
 H 0.371767 -1.215240 0.166603
 H 0.469978 0.033361 -1.076934
 H 0.390774 0.486027 0.636062
 H 2.657964 -0.572576 1.025892
 H 1.803682 1.152459 -2.259710
 H 3.496692 1.370277 -2.707232
 H 2.762506 2.432937 -1.500819
 H 4.602947 1.690616 0.317162
 H 5.293243 0.890225 -1.101282
 H 4.858942 -1.088658 0.182253