15
charge = 0
 C 1.301143 -0.231920 0.045544
 C 2.701996 0.067543 -0.381607
 O 3.038522 -0.175088 -1.732927
 C 3.008941 1.176270 -1.297439
 C 4.305438 1.917755 -1.205006
 C 5.571856 1.121013 -1.309991
 O 4.287651 3.116182 -1.062169
 H 1.172397 -1.305864 0.200883
 H 0.588135 0.095668 -0.712265
 H 1.074123 0.275960 0.985927
 H 3.482583 -0.224597 0.321204
 H 2.180268 1.777658 -1.665191
 H 5.668444 0.740615 -2.330954
 H 5.551686 0.244270 -0.659187
 H 6.421907 1.756447 -1.069821