17
charge = 0
 C 0.936669 -0.008952 -0.070090
 C 2.440608 0.070749 0.012463
 O 2.977575 -0.978385 0.846325
 C 3.768265 -0.239669 1.778679
 C 4.498496 0.785379 0.897373
 C 3.043879 1.287865 0.714787
 C 2.840339 0.907333 2.203480
 H 0.634732 -0.992712 -0.435571
 H 0.555119 0.743120 -0.766016
 H 0.468344 0.147006 0.903248
 H 2.863891 -0.036869 -0.994629
 H 4.261232 -0.920348 2.469492
 H 5.027598 0.404085 0.021778
 H 5.118357 1.479381 1.464749
 H 2.801201 2.270396 0.312740
 H 1.843029 0.644050 2.556975
 H 3.318765 1.618081 2.877007