15
charge = 0
 C 1.194483 -0.078893 0.029980
 C 2.514764 0.022285 0.006442
 O 3.383468 -1.041810 0.054022
 C 4.662485 -0.370636 -0.000764
 C 4.450054 0.658214 -1.117607
 C 3.430883 1.202651 -0.071821
 C 4.478776 0.776344 1.000078
 H 0.707203 -1.043039 0.090364
 H 0.585466 0.813018 -0.011515
 H 5.461373 -1.106651 0.029458
 H 4.065537 0.293376 -2.070620
 H 5.300994 1.325095 -1.254691
 H 2.986402 2.192878 -0.121030
 H 4.120718 0.520322 1.997796
 H 5.332104 1.453048 1.039099