15
charge = 0
 C 1.057193 0.142490 0.354541
 C 2.489556 0.013556 -0.106454
 O 2.772574 -1.290652 -0.585911
 C 2.560797 -1.254210 -1.969417
 C 3.694614 -0.709909 -2.789881
 C 2.565804 0.179201 -2.353755
 O 2.781408 0.900659 -1.173148
 H 0.861865 -0.558719 1.167820
 H 0.374980 -0.075857 -0.470079
 H 0.868335 1.157708 0.708010
 H 3.193070 0.227420 0.702409
 H 1.871889 -1.994336 -2.357765
 H 3.736709 -0.990738 -3.835992
 H 4.645946 -0.578667 -2.289981
 H 1.880460 0.630864 -3.060496