17
charge = 0
 C 1.037593 0.036516 0.256883
 C 2.509547 -0.181188 0.049757
 O 3.309835 0.913579 0.544442
 C 4.143766 0.022538 1.291194
 C 3.251689 -1.176320 0.955490
 C 3.903331 -2.367817 0.300011
 O 2.965015 -3.283355 -0.226486
 H 0.701052 0.916266 -0.296668
 H 0.813377 0.190727 1.315111
 H 0.476002 -0.829763 -0.102817
 H 2.722026 -0.357057 -1.013504
 H 4.214682 0.309785 2.344158
 H 5.155824 -0.038776 0.870284
 H 2.638164 -1.496969 1.804167
 H 4.586521 -2.861683 1.006394
 H 4.504815 -2.036929 -0.551528
 H 2.451360 -3.643665 0.501022