17
charge = 0
 C 1.036313 0.099207 0.106324
 C 2.531014 -0.033563 0.111392
 O 3.200672 0.986373 0.872753
 C 4.161549 0.041378 1.355351
 C 3.267848 -1.131229 0.917672
 C 2.483457 -1.753251 2.043680
 O 3.852120 -2.177987 0.192763
 H 0.744049 1.031278 -0.383008
 H 0.633707 0.105167 1.120188
 H 0.586163 -0.728520 -0.447719
 H 2.909314 -0.031870 -0.925222
 H 4.366761 0.162764 2.422470
 H 5.104433 0.092806 0.792391
 H 2.029183 -0.985200 2.671075
 H 3.151605 -2.357027 2.661423
 H 1.697339 -2.402464 1.653051
 H 4.354174 -1.804040 -0.537284