15
charge = 0
 C 1.072136 0.081762 0.168018
 C 2.268439 -0.020643 -0.399652
 O 2.612913 -1.085380 -1.182028
 C 4.032259 -1.187041 -1.279204
 C 4.573841 0.170676 -0.919818
 C 3.985928 1.322473 -1.657952
 C 3.406974 0.915786 -0.327599
 H 0.338875 -0.707139 0.069912
 H 0.812880 0.971758 0.723415
 H 4.269141 -1.505993 -2.297386
 H 4.392822 -1.948265 -0.577358
 H 5.566427 0.243500 -0.495232
 H 3.397990 1.123725 -2.547149
 H 4.552899 2.244518 -1.676322
 H 3.500866 1.573673 0.524866