13
charge = 0
 C 1.106751 0.050842 0.153181
 C 2.291354 -0.094355 -0.426989
 O 2.668520 -1.223413 -1.088649
 C 4.080468 -1.242914 -1.291443
 C 4.551972 0.153394 -1.008934
 O 3.878176 1.119368 -1.790801
 C 3.405536 0.873650 -0.462398
 H 0.381451 -0.751497 0.162472
 H 0.847739 0.994841 0.611184
 H 4.271433 -1.559818 -2.319215
 H 4.544372 -1.955269 -0.599582
 H 5.583031 0.361511 -0.743020
 H 3.467498 1.698671 0.236405