13
charge = 0
 C 0.943648 0.207246 0.086363
 C 2.262214 0.048479 0.082562
 O 3.101368 1.146856 0.076722
 C 4.377756 0.676328 0.073942
 C 4.461845 -0.655888 0.077468
 C 3.101637 -1.167510 0.083319
 C 2.687771 -2.439680 0.088285
 H 0.502043 1.194233 0.084975
 H 0.292783 -0.655233 0.090922
 H 5.142521 1.438435 0.069300
 H 5.367110 -1.241500 0.076215
 H 3.399218 -3.255679 0.088314
 H 1.635857 -2.695996 0.092413