17
charge = 0
 C 1.079768 -0.044811 0.095057
 C 2.573578 -0.118116 -0.112967
 O 2.865722 -1.258429 -0.955983
 C 3.322626 -0.771162 -2.132943
 C 3.495913 0.543648 -2.175973
 C 3.168261 1.119270 -0.826351
 C 4.380550 1.709318 -0.114721
 H 0.700944 -0.975271 0.521724
 H 0.573754 0.132456 -0.857286
 H 0.833036 0.774297 0.775702
 H 3.081195 -0.302673 0.838643
 H 3.496268 -1.517233 -2.897007
 H 3.857309 1.105488 -3.024079
 H 2.397724 1.896595 -0.901952
 H 5.165458 0.956886 -0.004157
 H 4.113363 2.076192 0.880823
 H 4.797142 2.547225 -0.679120