15
charge = 0
 C 0.938558 0.024405 0.339312
 C 2.384618 0.116737 -0.112078
 O 2.494220 0.316159 -1.495905
 C 3.249549 1.080878 0.734568
 C 3.827919 -0.112777 1.536219
 C 3.256807 -1.014616 0.454479
 O 3.496253 -2.114991 0.056619
 H 0.415286 0.941347 0.059369
 H 0.858581 -0.106723 1.421404
 H 0.443519 -0.822477 -0.142416
 H 2.355767 -0.533297 -1.928475
 H 2.706200 1.836229 1.301013
 H 4.002820 1.558798 0.109123
 H 3.335789 -0.271832 2.499246
 H 4.907204 -0.168350 1.680534