15
charge = 0
 C 0.975131 0.072103 -0.043061
 C 2.477474 0.033045 -0.180296
 O 2.835415 -1.103692 -1.002882
 C 3.284778 -0.606743 -2.171675
 C 3.399262 0.718870 -2.229602
 C 3.070704 1.274374 -0.879964
 O 4.196209 1.824034 -0.214455
 H 0.600052 -0.864811 0.371398
 H 0.506992 0.232303 -1.017588
 H 0.680875 0.888329 0.621004
 H 2.959856 -0.107695 0.789817
 H 3.501378 -1.350606 -2.927743
 H 3.737958 1.295690 -3.076263
 H 2.337012 2.084694 -0.901202
 H 4.953704 1.270334 -0.428186