17
charge = 0
 C 0.969789 0.132141 0.071896
 C 2.457999 0.040508 -0.114795
 O 3.180311 1.049599 0.615324
 C 4.136552 0.084732 1.101589
 C 5.490260 0.222196 0.454932
 C 3.248943 -1.062878 0.602827
 O 3.906935 -2.032393 -0.162303
 H 0.592423 1.082897 -0.311505
 H 0.706424 0.062114 1.130020
 H 0.466538 -0.673300 -0.471100
 H 2.722202 0.072891 -1.180906
 H 4.224909 0.154785 2.191101
 H 5.422054 0.142667 -0.630735
 H 6.164339 -0.560076 0.811586
 H 5.918585 1.193817 0.710214
 H 2.670237 -1.518579 1.414786
 H 3.314409 -2.773610 -0.304241