17
charge = 0
 C 1.007457 0.056591 0.071454
 C 2.527132 0.054732 0.041579
 O 3.043083 0.116333 1.361772
 C 3.051002 -1.165440 -0.755426
 C 3.362621 -0.601027 -2.106499
 C 3.367566 0.727687 -2.093792
 C 3.059909 1.273287 -0.735090
 H 0.628363 -0.831991 0.587585
 H 0.602245 0.049956 -0.943479
 H 0.638947 0.944119 0.590542
 H 2.618289 -0.569797 1.883974
 H 2.323482 -1.984007 -0.785465
 H 3.956227 -1.556096 -0.275224
 H 3.590240 -1.215780 -2.969897
 H 3.598866 1.356241 -2.945987
 H 2.339974 2.097366 -0.747254
 H 3.964517 1.649325 -0.243593