17
charge = 0
 C 0.901591 -0.011741 0.011219
 C 2.424962 -0.051251 0.053392
 O 2.944529 0.133440 -1.257584
 C 2.967701 -1.327838 0.731311
 C 3.293338 -0.933892 2.178635
 C 3.420184 0.559043 2.095781
 C 2.968052 1.033994 0.943371
 H 0.515189 -0.804826 -0.638717
 H 0.553783 0.949359 -0.373573
 H 0.479004 -0.160461 1.007486
 H 2.473198 -0.456519 -1.852355
 H 3.887754 -1.598913 0.209037
 H 2.275088 -2.170032 0.659111
 H 4.199715 -1.416356 2.555661
 H 2.488019 -1.212788 2.869801
 H 3.807489 1.163695 2.908090
 H 2.925606 2.076566 0.650742