15
charge = 0
 C 1.017406 0.056938 -0.072096
 C 2.497733 -0.093863 0.236764
 O 3.209175 1.072453 -0.225202
 C 3.606991 1.072437 -1.507404
 C 3.783551 -0.040623 -2.230032
 C 3.627141 -1.313954 -1.558963
 C 3.072980 -1.350916 -0.345489
 H 0.625575 0.981148 0.358437
 H 0.465474 -0.786722 0.349436
 H 0.853209 0.066164 -1.151617
 H 2.643752 -0.074693 1.319887
 H 3.832265 2.070715 -1.865380
 H 4.133661 0.029801 -3.250063
 H 4.014451 -2.213666 -2.024180
 H 2.989027 -2.268321 0.225502