15
charge = 0
 C 0.909864 0.179337 -0.201809
 C 2.379067 0.069868 0.154981
 O 2.605002 -1.092211 0.957876
 C 3.207965 -0.742236 2.128637
 C 3.550376 -1.630691 3.062712
 C 3.382212 0.701270 2.131878
 C 2.910558 1.190481 0.988436
 H 0.583143 -0.716823 -0.731838
 H 0.741948 1.043049 -0.849689
 H 0.305885 0.294423 0.700182
 H 2.966850 -0.045480 -0.767606
 H 3.361416 -2.687125 2.931681
 H 4.027176 -1.292322 3.971209
 H 3.828081 1.247717 2.950509
 H 2.892047 2.225242 0.674351