17
charge = 0
 C 0.995824 0.161948 0.147967
 C 2.497900 -0.094377 0.172695
 O 3.226526 1.046344 -0.246270
 C 3.399575 1.136143 -1.642949
 C 4.232332 -0.016324 -2.170098
 C 3.693480 -1.303807 -1.635339
 C 2.881067 -1.327591 -0.585997
 H 0.756086 1.033025 0.760318
 H 0.452790 -0.700427 0.542770
 H 0.643645 0.339856 -0.870435
 H 2.798425 -0.237966 1.218301
 H 3.882450 2.098110 -1.824725
 H 2.426704 1.148218 -2.155120
 H 5.282823 0.107863 -1.880273
 H 4.210700 -0.018257 -3.265361
 H 3.972281 -2.229241 -2.130365
 H 2.469113 -2.265215 -0.224019