15
charge = 0
 C 0.881951 -0.031033 0.320704
 C 2.232443 0.002004 -0.326226
 O 2.484231 -1.182207 -1.066024
 C 3.217584 -0.745034 -2.147963
 C 3.133360 0.573867 -2.269222
 C 3.643961 1.529865 -3.266564
 O 2.339727 1.072550 -1.254747
 H 0.827851 -0.868172 1.018201
 H 0.107707 -0.145238 -0.438933
 H 0.712702 0.895284 0.871613
 H 3.042724 0.118291 0.416763
 H 3.697655 -1.487694 -2.762088
 H 4.214885 1.006523 -4.033668
 H 4.287629 2.281742 -2.801485
 H 2.816277 2.058842 -3.748769