15
charge = 0
 C 1.256909 0.127965 -0.293839
 C 2.698388 0.037977 0.162537
 O 3.473073 1.137989 -0.197747
 C 3.603813 1.305257 -1.599774
 C 3.871810 -0.003403 -2.257753
 C 3.726687 -1.129476 -1.566222
 O 3.275018 -1.183355 -0.293890
 H 0.822095 1.068332 0.049669
 H 0.686804 -0.699826 0.129678
 H 1.180425 0.074520 -1.380829
 H 2.757160 -0.013429 1.250769
 H 4.445862 1.989555 -1.733836
 H 2.714851 1.804730 -2.015415
 H 4.224317 -0.037410 -3.280012
 H 3.967297 -2.111916 -1.954827