15
charge = 0
 C 1.147421 -0.078358 0.041717
 C 2.645097 -0.078941 0.036534
 O 3.153424 1.012315 0.746837
 C 4.436125 0.609451 1.179319
 C 4.288375 -0.879051 1.347395
 C 5.073268 -1.730884 1.990444
 O 3.152013 -1.235913 0.697702
 H 0.778770 0.817481 -0.459754
 H 0.782717 -0.092216 1.069434
 H 0.773350 -0.956026 -0.486593
 H 3.048931 -0.081580 -0.990130
 H 4.680007 1.127920 2.106153
 H 5.198797 0.845971 0.423488
 H 5.947258 -1.367978 2.512957
 H 4.856946 -2.790192 2.009996