15
charge = 0
 C 1.058897 0.064523 0.303673
 C 2.537399 0.061184 -0.018560
 O 2.768662 -0.020087 -1.404437
 C 3.338515 1.164613 0.735643
 C 3.856277 0.069498 1.654447
 O 4.384461 0.069161 2.725096
 C 3.340200 -1.023427 0.734113
 H 0.572229 0.947391 -0.123534
 H 0.887760 0.085276 1.382664
 H 0.580597 -0.827824 -0.105807
 H 2.243314 0.654937 -1.843763
 H 2.797042 1.990432 1.200641
 H 4.145875 1.556749 0.110665
 H 2.799948 -1.854298 1.190024
 H 4.144614 -1.413329 0.103925