17
charge = 0
 C 1.061000 0.032734 -0.118402
 C 2.565766 -0.006536 -0.132397
 O 3.076807 1.023760 0.698455
 C 4.342280 0.610840 1.148340
 O 4.488273 -0.753816 0.846729
 C 3.210676 -1.244128 0.471993
 C 3.372384 -2.425306 -0.447122
 H 0.699732 0.990360 -0.496548
 H 0.684244 -0.100210 0.898045
 H 0.652154 -0.757449 -0.752692
 H 2.942272 0.121829 -1.160171
 H 4.392173 0.790544 2.230313
 H 5.147341 1.157902 0.640274
 H 2.643933 -1.534186 1.371548
 H 3.928457 -2.139910 -1.342733
 H 2.395736 -2.813140 -0.746498
 H 3.915661 -3.228188 0.053666