15
charge = 0
 C 0.894004 -0.075102 -0.260902
 C 2.394443 -0.004135 -0.026814
 O 3.062390 0.240519 -1.264756
 C 2.946615 -1.260502 0.682625
 O 3.836132 -0.821081 1.715183
 C 3.646936 0.512484 1.832400
 C 2.829217 1.057696 0.940196
 H 0.640063 -0.921254 -0.909870
 H 0.547644 0.841200 -0.743111
 H 0.353289 -0.198921 0.678352
 H 2.628233 -0.277456 -1.949578
 H 3.503462 -1.896364 -0.006925
 H 2.148375 -1.839191 1.156633
 H 4.195345 0.976745 2.641175
 H 2.578641 2.103283 0.851185