13
charge = 0
 C 0.891311 0.111334 -0.161248
 C 2.382562 0.042089 0.097119
 O 2.702030 -1.132822 0.835315
 C 3.360812 -0.808081 1.983928
 O 3.736013 -1.628029 2.766991
 C 3.485186 0.663066 2.022079
 C 2.922189 1.159073 0.928589
 H 0.565001 -0.771860 -0.711625
 H 0.652340 0.997058 -0.754144
 H 0.342742 0.160659 0.781053
 H 2.920227 -0.014182 -0.858640
 H 3.965497 1.182122 2.837532
 H 2.836380 2.198771 0.640071