19
charge = 0
 C 3.351231 -0.746019 0.621143
 C 2.256646 0.047169 -0.077149
 C 2.793100 1.113766 -0.992608
 C 1.965929 2.315032 -1.377965
 C 3.182606 2.494171 -0.537574
 C 3.069053 2.932186 0.894320
 O 4.247515 3.096166 -1.224141
 H 2.933383 -1.530425 1.256663
 H 3.967457 -0.098952 1.250793
 H 4.012345 -1.225842 -0.105896
 H 1.591757 0.495246 0.668022
 H 1.627226 -0.633818 -0.661733
 H 3.428213 0.740025 -1.792062
 H 1.000342 2.435220 -0.899172
 H 2.021614 2.665937 -2.400456
 H 2.211099 2.478337 1.391734
 H 2.956145 4.018037 0.940140
 H 3.966724 2.662522 1.460415
 H 5.067814 2.740041 -0.869963