19
charge = 0
 C 1.208256 0.294015 -0.662177
 C 2.508178 -0.067768 0.039607
 C 3.139317 -1.332246 -0.496927
 C 4.405609 -1.915244 0.164358
 C 3.868161 -3.327356 -0.134514
 C 2.470479 -2.698332 -0.239188
 O 1.520312 -3.214388 -1.127461
 H 0.757105 1.189670 -0.229038
 H 0.482386 -0.519412 -0.591035
 H 1.377145 0.488965 -1.725169
 H 2.326220 -0.195935 1.113726
 H 3.221626 0.760009 -0.049269
 H 3.316190 -1.237049 -1.577700
 H 4.417712 -1.708508 1.237557
 H 5.372687 -1.637337 -0.255022
 H 4.027932 -4.123164 0.593935
 H 4.204663 -3.673541 -1.116723
 H 1.984610 -2.689383 0.741869
 H 1.908621 -3.230387 -2.006637