19
charge = 0
 C 1.879550 0.179106 -1.706686
 C 2.177415 0.128144 -0.217526
 C 3.002391 1.255217 0.373916
 C 3.228621 1.093730 1.855358
 C 4.124853 1.878000 -0.420964
 C 2.862117 2.644628 -0.156094
 O 2.859882 3.694545 0.760955
 H 1.303194 -0.699731 -2.003926
 H 2.792066 0.185382 -2.307542
 H 1.290221 1.057515 -1.979667
 H 2.696634 -0.811671 0.007182
 H 1.230721 0.084035 0.334570
 H 3.795656 0.179702 2.055355
 H 2.274640 1.019350 2.385935
 H 3.772911 1.939720 2.273424
 H 4.322245 1.544176 -1.432581
 H 5.003037 2.177115 0.139991
 H 2.190976 2.790719 -0.999503
 H 3.331778 4.433510 0.368403