17
charge = 0
 C 0.996030 0.332611 -0.133217
 C 2.477928 0.034217 0.029733
 C 3.018391 -0.883523 -1.048096
 C 4.499895 -1.342020 -1.021672
 C 4.071277 -2.794805 -1.332505
 C 2.645662 -2.366560 -1.010697
 O 1.655203 -2.961927 -0.707393
 H 0.635303 0.981830 0.667573
 H 0.410447 -0.588205 -0.115789
 H 0.799759 0.836696 -1.083843
 H 2.658376 -0.425095 1.008234
 H 3.053674 0.966400 0.017155
 H 2.764350 -0.492130 -2.042130
 H 4.929170 -1.248243 -0.022496
 H 5.166628 -0.866156 -1.739401
 H 4.479992 -3.606506 -0.729181
 H 4.173015 -3.056673 -2.389286