15
charge = 0
 C 3.600660 -0.570488 -0.794318
 C 2.426795 0.043647 -0.037059
 C 2.779798 1.276398 0.706372
 C 2.392305 2.572775 0.604518
 C 3.102815 3.292586 1.612241
 C 3.868523 2.379000 2.249234
 O 3.683929 1.150924 1.711311
 H 3.292455 -1.481655 -1.311646
 H 4.412416 -0.827446 -0.111509
 H 3.994053 0.127464 -1.536499
 H 2.018151 -0.694210 0.662849
 H 1.620517 0.295960 -0.729915
 H 1.682101 2.967724 -0.104860
 H 3.048319 4.347207 1.830438
 H 4.566444 2.437735 3.067842