11
charge = 0
 C 1.072696 -0.106373 -0.032803
 C 2.273330 -0.034843 -0.029462
 C 3.674839 0.070597 -0.025975
 C 4.512773 1.146511 -0.026570
 C 5.832919 0.625101 -0.021639
 C 5.700825 -0.724334 -0.018421
 O 4.403032 -1.079739 -0.020985
 H 0.010477 -0.172058 -0.035943
 H 4.208088 2.180419 -0.030125
 H 6.757760 1.179145 -0.020615
 H 6.411362 -1.534426 -0.014363