17
charge = 0
 C 1.254275 -0.564444 -0.403489
 C 2.133947 0.259097 0.146300
 C 2.865789 1.324996 -0.594702
 C 2.553441 2.743281 -0.121690
 C 3.840582 3.479113 -0.464138
 C 4.884909 2.420239 -0.147282
 O 4.270591 1.165313 -0.402108
 H 0.726764 -1.308676 0.181507
 H 1.030690 -0.522908 -1.465252
 H 2.360888 0.193477 1.208708
 H 2.642600 1.234539 -1.667893
 H 2.385887 2.745279 0.960102
 H 1.664316 3.151565 -0.603126
 H 3.983364 4.397799 0.106956
 H 3.862093 3.732863 -1.527649
 H 5.189561 2.469420 0.906396
 H 5.783885 2.503749 -0.764241