15
charge = 0
 C 3.002304 0.925675 0.781205
 C 2.384676 -0.095497 0.207039
 C 2.885827 -0.798062 -1.004214
 C 3.215577 -2.290765 -0.794065
 C 2.601580 -2.909087 -2.017537
 C 1.857905 -1.989178 -2.617030
 O 1.872614 -0.762070 -2.038910
 H 2.619616 1.387654 1.683575
 H 3.918330 1.335976 0.367417
 H 1.462656 -0.490214 0.628757
 H 3.760085 -0.271755 -1.404250
 H 2.763385 -2.679525 0.126801
 H 4.293644 -2.444658 -0.711103
 H 2.694427 -3.941073 -2.318658
 H 1.228493 -2.070111 -3.492926