13
charge = 0
 C 1.005642 -0.119028 0.454303
 C 2.163181 -0.042805 0.149416
 C 3.571808 0.011220 -0.194579
 C 4.128455 -1.275770 -0.844430
 C 4.978967 -0.696226 -1.937606
 C 4.712381 0.598698 -2.035426
 O 3.818792 1.081651 -1.134208
 H -0.023818 -0.177714 0.718512
 H 4.150474 0.251097 0.705744
 H 3.325479 -1.906040 -1.240525
 H 4.683542 -1.869321 -0.115351
 H 5.639161 -1.254977 -2.582485
 H 5.086916 1.333316 -2.734866