17
charge = 0
 C 1.041540 -0.249058 0.320490
 C 2.552950 -0.059004 0.243547
 C 3.072104 0.905825 1.244402
 C 3.940118 0.750183 2.242071
 C 4.173594 2.078852 2.902220
 C 3.052657 2.910556 2.268204
 O 2.597566 2.179898 1.119365
 H 0.701089 -0.949487 -0.445012
 H 0.523166 0.698963 0.169725
 H 0.748340 -0.643171 1.296160
 H 2.822952 0.303823 -0.754999
 H 3.067632 -1.011477 0.387647
 H 4.448559 -0.169934 2.486754
 H 5.169687 2.476335 2.672027
 H 4.083351 2.051455 3.991129
 H 3.364817 3.900716 1.935277
 H 2.204067 3.018915 2.951884