11
charge = 0
 C 0.876346 -0.010167 0.068320
 C 2.078631 -0.023832 0.070766
 C 3.490998 -0.059431 0.073840
 C 4.338445 1.007535 0.075212
 O 5.617489 0.595637 0.078133
 C 5.603722 -0.758091 0.078707
 C 4.335967 -1.220367 0.076231
 H -0.187614 0.006030 0.066305
 H 4.168577 2.071112 0.074372
 H 6.566597 -1.240813 0.080985
 H 4.015742 -2.249302 0.076028