15
charge = 0
 C 1.374361 0.900271 0.428188
 C 2.045901 -0.030237 -0.250411
 C 2.871855 0.229678 -1.407694
 C 3.562924 -0.660588 -2.121504
 C 4.282219 0.016142 -3.232838
 O 3.952228 1.388038 -3.109382
 C 3.087225 1.588015 -2.005971
 H 0.770760 0.642279 1.289553
 H 1.404314 1.947613 0.147770
 H 1.985491 -1.067913 0.068258
 H 3.608438 -1.726592 -1.937088
 H 3.971762 -0.355477 -4.220482
 H 5.372512 -0.113380 -3.166466
 H 2.145407 2.040351 -2.346707
 H 3.548702 2.283021 -1.290616