17
charge = 0
 C 1.007350 -0.144480 0.215820
 C 2.494238 -0.035415 0.200062
 C 3.192468 1.091526 0.144186
 C 2.675842 2.506373 0.092362
 C 3.939677 3.294070 -0.238375
 O 4.997097 2.556601 0.340180
 C 4.699308 1.192466 0.121198
 H 0.645837 -0.743497 -0.626575
 H 0.523769 0.832158 0.167127
 H 0.659737 -0.645361 1.125420
 H 3.042929 -0.975115 0.243039
 H 2.284157 2.807371 1.069515
 H 1.882728 2.649053 -0.644455
 H 3.960855 4.300596 0.180856
 H 4.074813 3.366079 -1.328398
 H 5.186939 0.604554 0.901653
 H 5.095138 0.867121 -0.854125