17
charge = 0
 C 1.049940 -0.234692 0.046512
 C 2.564018 -0.063029 0.137774
 C 3.029857 0.435232 1.462585
 C 3.843611 -0.154374 2.329505
 C 4.048705 0.712616 3.524135
 O 3.274156 1.874164 3.274529
 C 2.621584 1.764166 2.024331
 H 0.763567 -0.623575 -0.932963
 H 0.527777 0.713877 0.190484
 H 0.689760 -0.932002 0.806430
 H 2.888614 0.638498 -0.641231
 H 3.057871 -1.014277 -0.078042
 H 4.311351 -1.123564 2.206925
 H 5.102794 0.992458 3.665445
 H 3.711601 0.235576 4.455879
 H 2.923759 2.594335 1.367370
 H 1.534246 1.842681 2.166442