13
charge = 0
 C 1.848616 1.233396 0.207277
 C 2.560436 0.116313 0.182967
 C 3.239518 -0.393117 -1.029685
 C 4.718342 -0.784607 -0.913493
 C 4.211780 -2.175646 -1.232517
 O 4.661348 -3.259533 -1.389518
 O 2.905262 -1.796899 -1.306350
 H 1.386473 1.592441 1.118880
 H 1.704610 1.831374 -0.687153
 H 2.687359 -0.478281 1.085184
 H 3.001667 0.212410 -1.906178
 H 5.156250 -0.690601 0.080170
 H 5.393249 -0.364538 -1.657874