15
charge = 0
 C 1.561401 0.271025 -1.034187
 C 2.484049 -0.096684 0.115481
 C 3.384714 -1.257464 -0.205529
 C 4.151897 -1.917400 0.939799
 C 3.295598 -3.121987 0.604812
 O 3.156584 -4.234336 0.987595
 O 2.631557 -2.501141 -0.408454
 H 0.912521 1.106299 -0.764756
 H 0.927686 -0.574769 -1.307778
 H 2.131320 0.563768 -1.920126
 H 1.899882 -0.344172 1.008559
 H 3.121504 0.754284 0.381448
 H 3.985087 -1.065938 -1.098774
 H 3.970548 -1.505812 1.932958
 H 5.219262 -2.076574 0.791961