17
charge = 0
 C 2.761001 1.332224 0.329083
 C 2.361177 -0.112468 0.072329
 C 2.817882 -1.039507 1.165710
 C 3.078255 -2.493998 0.909494
 O 2.841704 -2.971401 -0.375626
 C 4.223958 -1.578268 1.170863
 O 4.916751 -1.757488 2.364509
 H 2.413401 1.989317 -0.471447
 H 3.848024 1.433581 0.394076
 H 2.337633 1.701260 1.267649
 H 2.769241 -0.454903 -0.881873
 H 1.272865 -0.184477 -0.027097
 H 2.410488 -0.834357 2.152526
 H 2.828500 -3.176345 1.719582
 H 3.495089 -3.649287 -0.568547
 H 4.833078 -1.324522 0.303111
 H 5.122224 -0.891663 2.727457