15
charge = 0
 C 3.299067 -1.044831 0.654930
 C 2.521221 0.065508 -0.032124
 C 3.245834 1.398602 0.010536
 C 2.503837 2.658685 -0.436867
 O 2.632220 3.227069 0.895513
 C 3.278177 2.116597 1.352949
 O 3.663226 1.908715 2.454435
 H 2.743091 -1.983914 0.627490
 H 3.497138 -0.796088 1.699149
 H 4.261398 -1.212695 0.163938
 H 1.537295 0.178800 0.435954
 H 2.337399 -0.195941 -1.079582
 H 4.249874 1.310560 -0.413395
 H 1.452549 2.518909 -0.692944
 H 3.001663 3.287924 -1.174490