15
charge = 0
 C 1.015024 -0.070693 0.088480
 C 2.500183 0.080455 -0.023936
 C 3.105462 1.005535 -0.774075
 C 4.596160 1.203835 -0.924942
 O 4.760163 2.312057 -1.827605
 C 3.523217 2.722051 -2.171075
 C 2.520162 2.032097 -1.615673
 H 0.750943 -0.891383 0.756493
 H 0.550949 -0.278500 -0.881585
 H 0.540877 0.834746 0.482097
 H 3.117898 -0.609888 0.543666
 H 5.100718 0.338067 -1.362017
 H 5.090692 1.461465 0.015394
 H 3.496253 3.559764 -2.854539
 H 1.469010 2.214793 -1.772391