17
charge = 0
 C 0.878588 -0.262612 -0.197303
 C 2.383492 -0.109506 -0.063626
 C 2.975186 0.956058 -0.986565
 C 4.509746 1.067109 -0.865246
 O 4.826056 2.424542 -0.504379
 C 3.649363 3.084875 -0.402623
 C 2.564030 2.367275 -0.660365
 H 0.502679 -1.054559 0.454177
 H 0.597811 -0.516263 -1.223630
 H 0.356917 0.659022 0.071487
 H 2.867054 -1.068725 -0.283703
 H 2.645184 0.141905 0.970196
 H 2.692174 0.701536 -2.016563
 H 5.029728 0.842439 -1.798567
 H 4.901908 0.414393 -0.079779
 H 3.736883 4.126712 -0.125010
 H 1.550720 2.737311 -0.641402