17
charge = 0
 C 3.112885 0.547234 -1.141053
 C 2.553397 -0.059698 0.133954
 C 3.092000 -1.438847 0.423287
 C 2.554750 -2.101020 1.694209
 O 2.402867 -3.467494 1.349320
 C 2.817924 -3.602940 0.011744
 O 2.684801 -2.351833 -0.584740
 H 2.695816 1.540492 -1.319318
 H 2.878075 -0.078655 -2.003702
 H 4.200409 0.647618 -1.086255
 H 1.461911 -0.127428 0.077748
 H 2.787284 0.581126 0.991379
 H 4.193618 -1.413259 0.455059
 H 1.577981 -1.692163 1.975803
 H 3.241961 -1.995704 2.539348
 H 2.173910 -4.318477 -0.503402
 H 3.868701 -3.939151 -0.021269