11
charge = 0
 C 1.054337 0.094159 0.007606
 C 2.254375 0.032160 -0.049753
 C 3.653551 -0.031210 -0.117360
 C 4.484956 -1.071518 -0.075209
 O 5.779774 -0.670469 -0.175476
 C 5.738524 0.749043 -0.290046
 O 4.380190 1.140221 -0.251305
 H -0.007425 0.145811 0.058623
 H 4.290729 -2.125688 0.021457
 H 6.187757 1.048895 -1.244117
 H 6.281444 1.196486 0.550780