19
charge = 0
 C 1.232332 -0.167009 -0.382300
 C 2.700005 0.221907 -0.468263
 C 3.145232 1.014075 0.724533
 O 4.380917 1.709019 0.618261
 C 3.188862 2.474603 0.736770
 C 3.016431 3.284743 1.986754
 C 1.582801 3.758078 2.169420
 H 0.930229 -0.758163 -1.249001
 H 0.590591 0.716863 -0.339686
 H 1.031370 -0.765218 0.510706
 H 2.892159 0.810896 -1.370032
 H 3.321690 -0.676924 -0.544773
 H 3.006470 0.519831 1.688656
 H 2.904316 2.981163 -0.188159
 H 3.692369 4.145817 1.943119
 H 3.336473 2.680850 2.841100
 H 1.256255 4.371634 1.325254
 H 1.479413 4.361031 3.073664
 H 0.894264 2.912912 2.249976