19
charge = 0
 C 1.291623 0.707873 0.982874
 C 2.426108 0.183492 0.120029
 C 3.052865 1.154688 -0.853605
 O 4.120807 0.579273 -1.556151
 C 2.245191 2.183626 -1.589472
 C 3.240455 2.601529 -0.533177
 C 4.497523 3.331776 -0.910055
 H 0.906240 -0.088372 1.623039
 H 0.456170 1.074800 0.382085
 H 1.618414 1.518752 1.637410
 H 2.064425 -0.677046 -0.458888
 H 3.230823 -0.198485 0.757537
 H 3.757739 -0.071690 -2.163567
 H 1.187059 2.286241 -1.381722
 H 2.529406 2.363947 -2.620106
 H 2.797677 2.922208 0.404409
 H 4.916242 2.934590 -1.834815
 H 5.259662 3.232186 -0.132622
 H 4.297972 4.397612 -1.050002