17
charge = 0
 C 1.123129 0.321200 0.083949
 C 2.605902 -0.014487 0.100826
 C 2.979606 -0.967768 -1.002229
 O 4.372347 -1.331571 -1.005568
 C 4.054058 -2.706172 -1.251570
 C 2.583835 -2.450939 -0.908398
 O 1.573634 -2.965500 -1.718418
 H 0.863685 0.991338 0.905510
 H 0.509593 -0.578314 0.180031
 H 0.838546 0.814753 -0.849174
 H 2.889476 -0.463092 1.058611
 H 3.205055 0.895643 -0.007117
 H 2.691141 -0.549603 -1.982094
 H 4.628750 -3.387599 -0.619464
 H 4.199557 -2.978809 -2.306926
 H 2.335848 -2.740771 0.114694
 H 1.756250 -2.720697 -2.630473