15
charge = 0
 C 0.992702 -0.033837 -0.092415
 C 2.466557 -0.084945 0.173106
 C 3.072652 0.594363 1.150063
 O 4.425526 0.521702 1.361796
 C 4.779881 1.345509 2.461883
 C 3.495228 1.945522 2.918757
 C 2.511907 1.495311 2.141414
 H 0.736071 -0.671474 -0.939102
 H 0.645050 0.974985 -0.337729
 H 0.400291 -0.383357 0.759430
 H 3.087937 -0.708022 -0.460344
 H 5.508921 2.098301 2.133025
 H 5.262931 0.732740 3.234885
 H 3.413470 2.631468 3.750581
 H 1.461874 1.739533 2.209760