17
charge = 0
 C 3.578338 0.046203 -1.183581
 C 2.444365 -0.003343 -0.173913
 C 2.798952 0.643887 1.157642
 O 1.761227 0.405187 2.103805
 C 1.330906 1.616484 2.695742
 C 2.097149 2.685170 1.991172
 C 2.935446 2.134817 1.127587
 H 3.306184 -0.475112 -2.103434
 H 4.480942 -0.430040 -0.789753
 H 3.836845 1.072970 -1.455093
 H 2.170885 -1.042549 0.031807
 H 1.549977 0.486743 -0.571349
 H 3.730066 0.180517 1.527088
 H 1.538401 1.606068 3.776374
 H 0.244512 1.723272 2.573509
 H 1.970938 3.741837 2.188744
 H 3.632975 2.657780 0.486953