17
charge = 0
 C 3.209693 -1.045250 0.841421
 C 2.608642 0.060570 -0.008068
 C 3.289163 1.386105 0.204812
 O 2.726822 2.372353 -0.615163
 C 3.076521 3.587894 0.007445
 C 2.993857 3.250175 1.496278
 O 3.117928 1.839179 1.532671
 H 2.700802 -1.994047 0.661419
 H 3.124433 -0.810573 1.903882
 H 4.269576 -1.189722 0.613912
 H 1.547338 0.195594 0.218309
 H 2.688458 -0.182661 -1.071640
 H 4.373363 1.309991 -0.005155
 H 2.375542 4.359740 -0.309867
 H 4.094474 3.887274 -0.276984
 H 2.030096 3.531366 1.930876
 H 3.794492 3.721122 2.075043