19
charge = 0
 C 2.751611 0.704198 -1.307046
 C 2.405843 0.019131 0.004910
 C 3.027563 -1.363683 0.172084
 C 4.532684 -1.365226 0.190067
 C 5.299638 -2.653237 0.034626
 C 5.332049 -1.637229 -1.048066
 O 6.550402 -0.993185 -1.249894
 H 2.253224 1.672586 -1.391971
 H 2.445078 0.096570 -2.163548
 H 3.826579 0.879671 -1.395253
 H 1.317989 -0.072866 0.089083
 H 2.720054 0.654228 0.841467
 H 2.679450 -2.021971 -0.634185
 H 2.657687 -1.808593 1.103174
 H 4.991951 -0.649724 0.867861
 H 4.742507 -3.567780 -0.132389
 H 6.208435 -2.765420 0.612237
 H 4.773925 -1.858460 -1.956870
 H 6.371243 -0.092509 -1.533997