17
charge = 0
 C 1.028740 -0.324559 -0.478642
 C 2.516631 -0.240702 -0.462606
 C 3.331462 -1.259046 -0.206663
 C 4.804242 -1.211239 -0.144818
 C 5.584205 0.075571 -0.117252
 C 5.510412 -0.753241 1.109993
 O 6.689884 -1.371529 1.509350
 H 0.584360 0.352007 0.258757
 H 0.683023 -1.337135 -0.260958
 H 0.627449 -0.029098 -1.453462
 H 2.946302 0.733749 -0.686849
 H 2.888761 -2.234365 -0.002970
 H 5.314571 -2.034035 -0.638009
 H 5.052780 1.018273 -0.133635
 H 6.534956 0.076131 -0.635021
 H 4.872344 -0.394431 1.915490
 H 6.465078 -2.193642 1.953565