19
charge = 0
 C 1.016075 -0.076380 0.178891
 C 2.528471 -0.104009 -0.012996
 C 3.104119 1.302555 0.077247
 C 3.152137 -1.099380 0.944221
 C 4.603618 -1.099757 1.346206
 C 3.554974 -0.770232 2.348198
 O 3.352121 -1.705088 3.363308
 H 0.535003 0.576193 -0.554267
 H 0.759804 0.297349 1.175357
 H 0.582776 -1.074582 0.074818
 H 2.730114 -0.474129 -1.027248
 H 2.907916 1.756295 1.052990
 H 2.643729 1.945485 -0.676733
 H 4.182527 1.318763 -0.093240
 H 2.736439 -2.099789 0.851694
 H 5.251236 -0.301091 1.006731
 H 5.083604 -2.064400 1.452860
 H 3.489263 0.267466 2.668207
 H 2.414604 -1.720879 3.573346