15
charge = 0
 C 1.013724 0.025128 -0.069063
 C 2.462016 -0.061404 -0.068455
 C 3.663756 -0.137581 -0.061938
 C 5.091902 -0.220561 -0.065086
 C 5.825641 -0.948753 -1.176673
 C 5.902009 0.525225 -1.102861
 O 7.130296 1.060088 -0.740191
 H 0.573776 -0.720298 -0.736735
 H 0.674141 1.011297 -0.396609
 H 0.613663 -0.149098 0.933178
 H 5.567910 -0.284823 0.908262
 H 5.230883 -1.398100 -1.960627
 H 6.714830 -1.493145 -0.885421
 H 5.333913 1.097495 -1.832464
 H 6.974630 1.886953 -0.275127