17
charge = 0
 C 1.527104 1.256235 -1.140104
 C 2.424022 0.419781 -1.643970
 C 3.187431 -0.593351 -0.859073
 C 4.680237 -0.346162 -0.912028
 C 5.267365 0.786330 -0.061595
 C 6.154466 -0.314059 0.522157
 O 5.426572 -1.332885 -0.178202
 H 1.008459 1.975609 -1.763242
 H 1.271512 1.244269 -0.084866
 H 2.645365 0.467146 -2.709367
 H 3.006300 -1.597192 -1.263067
 H 2.860348 -0.599221 0.184968
 H 5.015173 -0.315498 -1.958456
 H 4.552394 1.210258 0.644346
 H 5.769066 1.591818 -0.595268
 H 6.119117 -0.459040 1.605492
 H 7.201368 -0.275058 0.200664