17
charge = 0
 C 0.767117 -0.155097 -0.425873
 C 2.250678 -0.218217 -0.322248
 C 3.104338 0.442298 -1.096211
 C 4.577109 0.335810 -0.981758
 C 5.397120 0.047220 -2.252172
 C 6.186063 1.292372 -1.853617
 O 5.233395 1.616089 -0.831861
 H 0.324155 0.188946 0.514126
 H 0.343968 -1.144781 -0.625904
 H 0.449272 0.520251 -1.222116
 H 2.655549 -0.863699 0.456708
 H 2.733795 1.107526 -1.875253
 H 4.840769 -0.327413 -0.147067
 H 4.817623 0.167875 -3.167833
 H 5.932254 -0.900809 -2.281727
 H 6.273908 2.087813 -2.598725
 H 7.176707 1.087705 -1.430548