17
charge = 0
 C 4.810355 0.359660 -1.820480
 C 3.874670 0.278367 -0.656578
 C 2.916813 -0.633487 -0.542252
 C 4.096436 1.315563 0.393980
 C 3.628531 2.754274 0.091344
 C 2.858441 2.612819 1.403973
 O 3.221922 1.230664 1.525249
 H 4.585245 -0.405346 -2.563950
 H 5.849393 0.230962 -1.499008
 H 4.751763 1.338468 -2.308937
 H 2.764780 -1.385477 -1.308576
 H 2.271030 -0.650015 0.326845
 H 5.147548 1.278585 0.719067
 H 2.996860 2.826556 -0.793675
 H 4.401363 3.520615 0.058608
 H 1.774241 2.745796 1.354253
 H 3.255308 3.206006 2.235047