19
charge = 0
 C 1.299950 -0.833019 0.201867
 C 2.647398 -0.467108 -0.402529
 C 2.464555 0.587196 -1.491903
 C 3.669727 0.009465 0.619816
 C 5.095503 0.072189 0.141128
 C 3.438736 -0.105230 2.060522
 O 3.263531 1.137020 1.397515
 H 0.590605 -1.088634 -0.588504
 H 0.883928 0.010152 0.760137
 H 1.369108 -1.691913 0.872587
 H 3.071241 -1.368245 -0.863996
 H 2.076419 1.512521 -1.058762
 H 1.752625 0.240423 -2.244265
 H 3.398783 0.820890 -2.005611
 H 5.195398 0.726129 -0.727551
 H 5.449322 -0.922739 -0.142044
 H 5.742749 0.459227 0.929065
 H 4.297261 -0.156913 2.727650
 H 2.529161 -0.556902 2.443979