19
charge = 0
 C 0.986585 -0.241435 0.180059
 C 2.454606 -0.227257 -0.212414
 C 3.355056 0.234175 0.925788
 C 4.815821 0.324608 0.564321
 C 5.516583 -0.960693 0.226869
 C 5.343758 1.588505 0.051820
 O 5.571298 1.203575 1.398064
 H 0.354800 -0.576579 -0.645522
 H 0.647694 0.755385 0.475432
 H 0.811803 -0.911873 1.026099
 H 2.599487 0.431086 -1.076534
 H 2.751559 -1.229235 -0.538988
 H 3.247242 -0.447487 1.778803
 H 3.033433 1.220317 1.275559
 H 5.088583 -1.422471 -0.665873
 H 5.424712 -1.672135 1.052450
 H 6.577128 -0.779416 0.048058
 H 4.674497 2.436248 -0.082153
 H 6.223977 1.586180 -0.587858