17
charge = 0
 C 1.868520 -2.629478 -1.319746
 C 2.627798 -1.683066 -1.854147
 C 3.029129 -0.416590 -1.173675
 C 4.535063 -0.295891 -1.008854
 C 5.032784 0.867088 -0.140930
 O 5.554476 -0.027413 0.848646
 C 5.175860 -1.173956 0.073414
 H 1.619069 -3.532902 -1.864135
 H 1.462135 -2.530552 -0.317654
 H 3.013902 -1.825043 -2.862873
 H 2.548704 -0.353255 -0.191329
 H 2.673207 0.441497 -1.758738
 H 5.028430 -0.364223 -1.980847
 H 4.249265 1.516900 0.266057
 H 5.818975 1.488447 -0.583270
 H 4.483848 -1.827627 0.615638
 H 6.047825 -1.757616 -0.239447