15
charge = 0
 C 1.018288 0.092545 -0.016462
 C 2.468772 0.112302 -0.006087
 C 3.671853 0.128972 -0.000845
 C 5.115182 0.146880 0.023926
 C 5.838844 1.073557 1.021459
 O 6.678665 0.002875 1.465127
 C 5.868198 -0.961883 0.786239
 H 0.611100 0.846708 0.661701
 H 0.637626 -0.881908 0.299820
 H 0.629563 0.295939 -1.017410
 H 5.513241 0.269337 -0.986091
 H 5.187002 1.441705 1.821032
 H 6.411871 1.901994 0.597607
 H 5.229711 -1.521037 1.478646
 H 6.463183 -1.655185 0.186537