17
charge = 0
 C 0.863047 0.122023 1.835758
 C 2.345322 0.001255 1.764595
 C 3.063241 0.084915 0.650904
 C 4.532655 -0.043233 0.598410
 O 5.215757 -0.301215 1.814463
 C 5.232093 -1.316459 0.820950
 C 6.556534 -1.633493 0.204343
 H 0.567902 0.953476 2.483829
 H 0.415525 -0.779932 2.265682
 H 0.422676 0.284366 0.849943
 H 2.877752 -0.162639 2.698967
 H 2.573198 0.268325 -0.303818
 H 5.039689 0.676109 -0.047012
 H 4.599875 -2.169416 1.067736
 H 7.100575 -0.717850 -0.034024
 H 6.423829 -2.212769 -0.713162
 H 7.167260 -2.225752 0.890725