19
charge = 0
 C 1.093151 0.009143 0.112133
 C 2.604302 0.118224 -0.049217
 C 3.094121 1.539037 0.180213
 C 3.283285 -0.903278 0.830751
 O 4.696133 -0.838583 0.966168
 C 3.898846 -0.623703 2.126635
 C 3.998232 -1.652822 3.208240
 H 0.578857 0.684877 -0.575056
 H 0.790033 0.274611 1.129374
 H 0.737717 -1.004978 -0.089200
 H 2.856031 -0.161689 -1.081207
 H 2.748855 1.928024 1.142381
 H 2.709229 2.203326 -0.596778
 H 4.184543 1.587164 0.159681
 H 2.913997 -1.920781 0.684629
 H 3.907621 0.411620 2.464550
 H 3.967192 -2.659427 2.787419
 H 3.173416 -1.544662 3.917705
 H 4.934370 -1.541282 3.761291