15
charge = 0
 C 0.993520 -0.099155 0.096219
 C 2.441184 -0.073682 0.032169
 C 3.642130 -0.056764 -0.032791
 C 5.077334 -0.045366 -0.073449
 O 5.712978 -0.484822 -1.274385
 C 5.832144 0.882821 -0.925936
 C 7.194758 1.373455 -0.554459
 H 0.574297 0.902122 -0.030332
 H 0.651741 -0.490258 1.057655
 H 0.583773 -0.737742 -0.690412
 H 5.567990 -0.395289 0.833580
 H 5.238808 1.543964 -1.556513
 H 7.697409 0.659354 0.100059
 H 7.128671 2.336252 -0.041531
 H 7.807663 1.508599 -1.449163