19
charge = 0
 C 1.610104 0.678279 -0.201590
 C 1.831539 -0.109812 1.079029
 C 2.968325 -1.123282 1.004540
 C 4.337845 -0.519045 0.816322
 O 4.674312 0.468028 1.752443
 C 5.457412 -1.373331 0.304259
 C 4.885783 -0.266749 -0.544502
 H 2.482604 1.284472 -0.452193
 H 0.755524 1.351805 -0.103004
 H 1.410931 0.013666 -1.047883
 H 2.033266 0.583524 1.901084
 H 0.912243 -0.642867 1.343412
 H 2.977941 -1.717310 1.928342
 H 2.786557 -1.833224 0.189943
 H 4.788269 0.039733 2.606371
 H 5.242646 -2.399666 0.030235
 H 6.437627 -1.206315 0.733348
 H 4.281085 -0.534104 -1.401889
 H 5.488086 0.624718 -0.664958