17
charge = 0
 C 2.162401 2.601099 2.469124
 C 2.884354 1.980532 1.546619
 C 3.045342 0.500360 1.424094
 C 4.503939 0.040595 1.469822
 C 5.153740 0.290538 2.797942
 C 5.219209 -0.741013 3.828636
 O 6.361744 -0.409266 3.056553
 H 2.081352 3.681608 2.495321
 H 1.620919 2.048155 3.230948
 H 3.412394 2.577075 0.803015
 H 2.618540 0.177140 0.467250
 H 2.470773 0.000331 2.210448
 H 5.076679 0.557997 0.691347
 H 4.566310 -1.028465 1.247378
 H 5.167377 1.327999 3.129512
 H 4.791794 -1.720931 3.625296
 H 5.268623 -0.460345 4.877896