15
charge = 0
 C 4.394954 2.608350 -0.810630
 C 4.087275 1.524484 -0.395789
 C 3.718112 0.203948 0.089608
 C 4.305428 -0.939485 -0.743498
 C 5.804087 -0.970418 -0.709459
 C 6.533919 -1.808290 0.237156
 O 6.419610 -2.178177 -1.127336
 H 4.664177 3.571689 -1.174179
 H 2.626646 0.123306 0.094259
 H 4.040340 0.104140 1.132012
 H 3.970816 -0.841750 -1.780626
 H 3.924092 -1.892499 -0.366924
 H 6.299388 -0.071321 -1.073167
 H 5.976868 -2.431986 0.933567
 H 7.531489 -1.521303 0.560087