11
charge = 0
 C 0.979678 -0.023420 0.066719
 C 2.184653 -0.057122 0.054635
 C 3.545971 -0.095298 0.041866
 C 4.753588 -0.129870 0.022871
 C 6.184939 -0.175164 0.043096
 C 6.942677 -0.854976 -1.015373
 O 6.881219 0.553185 -0.962376
 H -0.084149 0.007464 0.076983
 H 6.634499 -0.112804 1.032027
 H 6.396461 -1.316810 -1.832872
 H 7.905154 -1.295185 -0.766876