15
charge = 0
 C 1.105624 0.300012 0.154051
 C 2.612641 0.046821 0.057529
 C 3.089208 0.212285 -1.308824
 C 3.462143 0.340971 -2.442512
 C 3.351198 0.918463 1.053714
 C 4.638204 1.549672 0.795987
 O 3.432348 2.301491 0.775805
 H 0.557938 -0.356162 -0.522989
 H 0.882946 1.334816 -0.109550
 H 0.756906 0.117502 1.173285
 H 2.811175 -0.992633 0.352085
 H 3.790798 0.457030 -3.448137
 H 3.092763 0.691103 2.088566
 H 5.107552 1.411679 -0.173872
 H 5.304255 1.764752 1.628062