17
charge = 0
 C 2.284647 0.141519 -1.313917
 C 3.344976 -0.213284 -0.276696
 C 3.412836 0.778117 0.835946
 C 4.484753 1.488881 1.165124
 C 4.532370 2.485934 2.255556
 C 3.847697 2.301331 3.530042
 O 5.250171 2.124360 3.435732
 H 2.232959 -0.617297 -2.097753
 H 2.504915 1.102137 -1.785068
 H 1.294586 0.215715 -0.856144
 H 4.326148 -0.296904 -0.753137
 H 3.114922 -1.200944 0.141604
 H 2.492943 0.926820 1.401206
 H 5.406489 1.364554 0.598533
 H 4.734443 3.510928 1.942071
 H 3.278128 1.391455 3.701078
 H 3.524908 3.170878 4.097913