13
charge = 0
 C 1.013699 -0.196001 0.337481
 C 2.338165 -0.086224 0.267908
 C 3.101978 0.204899 -0.996444
 C 3.447547 1.613493 -1.120692
 C 3.717018 2.778082 -1.221342
 C 3.117922 -0.285028 1.505473
 O 4.319890 -0.303287 1.553201
 H 0.375838 -0.085074 -0.532068
 H 0.527352 -0.401242 1.286062
 H 2.512452 -0.103061 -1.864288
 H 4.024344 -0.384730 -0.992015
 H 3.966194 3.809014 -1.308390
 H 2.502111 -0.439640 2.416805