15
charge = 0
 C 1.111638 -0.050993 0.556040
 C 2.401736 -0.038240 0.222231
 C 3.021087 -1.010030 -0.653379
 C 4.315665 -1.004673 -0.981403
 C 4.965963 -1.982465 -1.904981
 C 5.306195 -1.311688 -3.216230
 O 6.419054 -1.147812 -3.629621
 H 0.688118 0.696919 1.214764
 H 0.438740 -0.813522 0.176881
 H 3.049941 0.740209 0.618699
 H 2.373994 -1.790981 -1.050278
 H 4.957718 -0.222367 -0.581388
 H 4.275560 -2.805829 -2.119309
 H 5.888746 -2.387753 -1.482626
 H 4.424544 -0.946675 -3.786879