15
charge = 0
 C 1.150360 0.438130 0.262940
 C 2.318509 -0.089833 -0.089793
 C 2.892577 -1.327304 0.455177
 C 2.148628 -2.398038 0.732238
 C 4.381645 -1.336073 0.677941
 C 4.797530 -0.442975 1.820021
 O 5.587467 -0.758656 2.665174
 H 0.780290 1.344356 -0.201437
 H 0.534722 -0.012703 1.033866
 H 2.926271 0.431217 -0.828572
 H 1.084684 -2.409975 0.527087
 H 2.587023 -3.296466 1.151315
 H 4.882396 -0.944219 -0.219403
 H 4.763692 -2.339827 0.865394
 H 4.318406 0.559455 1.835562