15
charge = 0
 C 1.378883 -0.999130 0.725617
 C 2.159650 -0.188336 0.026929
 C 2.964486 0.935559 0.610539
 C 4.429266 0.719372 0.423621
 C 5.253913 1.514252 -0.259418
 C 6.674704 1.189886 -0.380773
 O 7.480913 1.858345 -0.977767
 H 0.821278 -1.796873 0.249126
 H 1.263836 -0.890998 1.799901
 H 2.253300 -0.327886 -1.047842
 H 2.745800 1.010040 1.681925
 H 2.675284 1.884905 0.148233
 H 4.840396 -0.181078 0.880064
 H 4.911490 2.423700 -0.745175
 H 6.979311 0.250541 0.131709