19
charge = 0
 C 0.801186 -0.578018 0.492191
 C 2.261616 -0.867362 0.559586
 C 3.067765 -0.988507 -0.488371
 C 4.535689 -1.262595 -0.428949
 C 4.961367 -2.509594 -1.203922
 C 4.433826 -3.797892 -0.601775
 O 4.879132 -4.949357 -1.290015
 H 0.217842 -1.368830 0.974737
 H 0.459683 -0.485025 -0.540756
 H 0.557919 0.352248 1.015752
 H 2.686694 -0.982519 1.556455
 H 2.643814 -0.875196 -1.487496
 H 4.851153 -1.350764 0.616549
 H 5.076036 -0.402800 -0.843016
 H 6.053271 -2.566280 -1.245511
 H 4.611999 -2.426986 -2.241895
 H 3.337551 -3.768974 -0.547152
 H 4.802127 -3.906024 0.422529
 H 4.546140 -4.908236 -2.189919