15
charge = 0
 C 0.728233 -0.105917 0.108891
 C 2.192104 0.128306 0.170588
 C 3.080943 -0.686811 0.749759
 C 4.493015 -0.414612 0.783102
 C 5.422665 -1.200048 1.350894
 C 6.829219 -0.825959 1.325868
 O 7.724578 -1.474594 1.811692
 H 0.383318 -0.142196 -0.929753
 H 0.182310 0.715012 0.585451
 H 0.446159 -1.038776 0.599229
 H 2.560454 1.040533 -0.296718
 H 2.738503 -1.604428 1.223548
 H 4.824111 0.507541 0.305244
 H 5.164780 -2.132500 1.844298
 H 7.040908 0.136937 0.809088