19
charge = 0
 C 0.673884 -0.397471 -0.823198
 C 2.154369 -0.321461 -0.978987
 C 3.030747 -1.137441 -0.400143
 C 4.516381 -1.077287 -0.570299
 C 5.238005 -1.112777 0.771399
 C 4.979362 -2.235071 -1.455867
 O 4.415213 -2.195886 -2.743087
 H 0.278148 0.524713 -0.385830
 H 0.380699 -1.231524 -0.182757
 H 0.178843 -0.519039 -1.791811
 H 2.535003 0.484109 -1.606534
 H 2.657547 -1.943532 0.234817
 H 4.769433 -0.148960 -1.095459
 H 5.006434 -2.032942 1.316334
 H 4.941130 -0.271040 1.399926
 H 6.321622 -1.069302 0.635022
 H 4.753670 -3.188202 -0.951313
 H 6.063454 -2.185308 -1.589510
 H 3.470754 -2.036598 -2.632583