15
charge = 0
 C 1.013941 0.014045 0.028299
 C 2.497590 -0.057007 0.043669
 C 3.274066 0.116687 -1.029608
 C 4.689247 0.055321 -1.005820
 C 5.894968 0.002807 -1.014126
 C 7.350900 -0.015731 -1.021690
 O 7.933797 0.975738 -0.199368
 H 0.574755 -0.925587 0.378944
 H 0.630122 0.221345 -0.972162
 H 0.653119 0.795543 0.705016
 H 2.975104 -0.262902 0.998468
 H 2.812087 0.324184 -1.993136
 H 7.703642 0.073260 -2.058850
 H 7.714087 -0.974465 -0.641440
 H 7.500356 1.810993 -0.394676