19
charge = 0
 C 0.914598 -0.015886 -1.074607
 C 2.402801 -0.037635 -1.149407
 C 3.180254 -1.023828 -0.709721
 C 4.670627 -1.035906 -0.811441
 C 5.186363 -1.970640 -1.915273
 C 4.869463 -3.434268 -1.661659
 O 4.710513 -1.553643 -3.179296
 H 0.564666 0.831015 -0.475719
 H 0.522165 -0.932626 -0.630237
 H 0.469079 0.101191 -2.067516
 H 2.879117 0.841132 -1.584050
 H 2.704925 -1.897488 -0.265275
 H 5.113038 -1.343021 0.142696
 H 5.031294 -0.027344 -1.031888
 H 6.273390 -1.851758 -1.968050
 H 3.790073 -3.603926 -1.625647
 H 5.300736 -3.774239 -0.715991
 H 5.277455 -4.046360 -2.467648
 H 3.761962 -1.403780 -3.089179