17
charge = 0
 C 0.793907 -1.402172 -0.327481
 C 2.280406 -1.303680 -0.327637
 C 3.012105 -0.821047 -1.325351
 C 4.507200 -0.728893 -1.327275
 C 5.073201 -1.605371 -2.434853
 C 5.329620 -3.044644 -2.084127
 O 5.277221 -1.162714 -3.537091
 H 0.467712 -2.437987 -0.189313
 H 0.368886 -1.032581 -1.262349
 H 0.361355 -0.826152 0.496700
 H 2.789370 -1.649599 0.571745
 H 2.517917 -0.469769 -2.229553
 H 4.900707 -1.039448 -0.355564
 H 4.824846 0.296628 -1.534159
 H 6.185543 -3.100413 -1.403778
 H 5.545544 -3.620691 -2.982065
 H 4.472258 -3.468158 -1.555061