15
charge = 0
 C 0.925312 0.008176 -0.092473
 C 2.396850 0.265486 -0.174470
 C 2.934337 1.030780 -1.131496
 C 3.271392 -0.335075 0.817337
 C 2.894647 -1.122836 1.835239
 C 3.885597 -1.660062 2.761228
 O 3.631028 -2.374151 3.700075
 H 0.393996 0.518301 -0.895675
 H 0.519599 0.354500 0.862283
 H 0.710095 -1.061768 -0.163224
 H 2.323532 1.500555 -1.893722
 H 4.003417 1.206735 -1.175907
 H 4.332910 -0.114967 0.710560
 H 1.859317 -1.392638 2.015514
 H 4.934382 -1.360127 2.541821