15
charge = 0
 C 1.100787 0.003189 -0.152541
 C 2.592080 0.036046 -0.002018
 C 3.198280 0.738198 0.953224
 C 3.376215 -0.766964 -0.965637
 C 4.276307 -1.681668 -0.601539
 C 3.163925 -0.520403 -2.420945
 O 3.678680 -1.154427 -3.304416
 H 0.615743 0.646045 0.582511
 H 0.724244 -1.016645 -0.027388
 H 0.787955 0.331124 -1.148525
 H 2.629432 1.314083 1.675071
 H 4.278760 0.766650 1.031581
 H 4.463190 -1.907029 0.441523
 H 4.833073 -2.221070 -1.359830
 H 2.497148 0.332871 -2.662371