15
charge = 0
 C 1.044885 -0.190619 0.260972
 C 2.517819 0.035355 0.081681
 C 3.179192 1.022869 0.690777
 C 3.189805 -0.869782 -0.790806
 C 3.720479 -1.661362 -1.530463
 C 4.378018 -2.577784 -2.452189
 O 5.582413 -2.073746 -2.989656
 H 0.620016 0.545036 0.944628
 H 0.854721 -1.191089 0.658246
 H 0.524626 -0.122965 -0.698061
 H 2.661229 1.713130 1.346373
 H 4.243233 1.162267 0.548052
 H 3.671433 -2.851955 -3.248506
 H 4.642384 -3.501350 -1.929543
 H 5.410548 -1.188396 -3.321694