17
charge = 0
 C 1.476687 1.150924 0.860825
 C 2.951191 0.913938 0.752079
 C 3.831731 1.726607 1.328998
 C 3.324872 -0.297847 -0.050224
 C 4.802771 -0.581714 -0.190331
 C 5.117832 -1.802249 -1.000494
 O 4.303946 -2.521285 -1.512284
 H 1.252729 2.039962 1.451147
 H 0.978415 0.293452 1.325047
 H 1.028436 1.272720 -0.130775
 H 3.503500 2.589325 1.898045
 H 4.901674 1.571301 1.261294
 H 2.879919 -0.210202 -1.048753
 H 2.830588 -1.174731 0.385069
 H 5.288517 -0.713706 0.786065
 H 5.338144 0.256627 -0.656465
 H 6.204157 -2.017633 -1.108153