15
charge = 0
 C 1.292269 -0.093751 -0.000956
 C 2.783679 -0.216465 -0.004982
 C 3.508296 1.056572 -0.052762
 C 4.526482 1.335887 -0.861381
 C 3.380209 -1.422645 0.034011
 C 4.811926 -1.662935 0.190966
 O 5.311878 -2.761067 0.102138
 H 0.944729 0.426211 -0.898725
 H 0.964362 0.506226 0.854317
 H 0.807011 -1.067997 0.052542
 H 3.113493 1.845565 0.585626
 H 4.906406 0.608131 -1.569706
 H 4.992430 2.314312 -0.857297
 H 2.770814 -2.321825 0.007664
 H 5.430715 -0.780010 0.440045