21
charge = 0
 C 3.859189 -2.396295 -0.722528
 C 3.469093 -0.989313 -1.155444
 C 2.088439 -0.991767 -1.796991
 C 3.518101 0.008133 0.001198
 C 4.894067 0.218439 0.615235
 C 4.927825 1.328906 1.650115
 O 4.145133 1.056498 2.795316
 H 3.801555 -3.092356 -1.563245
 H 3.181907 -2.761440 0.056698
 H 4.876063 -2.440232 -0.327473
 H 4.192521 -0.653251 -1.910846
 H 1.328571 -1.319595 -1.080025
 H 2.048928 -1.670661 -2.652637
 H 1.807591 0.005387 -2.146351
 H 2.813385 -0.331703 0.772643
 H 3.141445 0.974982 -0.358393
 H 5.610356 0.470120 -0.177014
 H 5.250176 -0.702637 1.086125
 H 4.620550 2.278814 1.187372
 H 5.947601 1.464021 2.017965
 H 3.222413 1.030951 2.531602