17
charge = 0
 C 0.862547 -0.128517 0.030842
 C 2.337665 0.063564 -0.144948
 C 2.688191 0.829368 -1.379012
 C 3.172401 -0.443909 0.775805
 C 4.642997 -0.440791 0.912245
 C 5.561725 0.214776 -0.087050
 O 5.120435 -0.997344 1.881345
 H 0.352724 0.839731 0.077015
 H 0.626242 -0.688613 0.935028
 H 0.440005 -0.659493 -0.828858
 H 2.287344 0.312487 -2.257391
 H 3.750440 0.983645 -1.530035
 H 2.198469 1.808619 -1.354119
 H 2.724348 -0.974650 1.611705
 H 5.357112 1.285029 -0.168075
 H 5.443196 -0.225347 -1.080065
 H 6.586371 0.069356 0.250698