21
charge = 0
 C 2.361057 1.070450 -0.728203
 C 3.730130 0.560978 -0.298298
 C 4.311424 1.447347 0.794587
 C 3.637949 -0.901031 0.132554
 C 4.968230 -1.593135 0.396997
 C 4.777231 -3.026960 0.855549
 O 5.823732 -1.529769 -0.734395
 H 2.414524 2.106101 -1.073779
 H 1.652084 1.036797 0.105777
 H 1.945568 0.467402 -1.540246
 H 4.402264 0.605788 -1.162804
 H 3.696988 1.402867 1.700270
 H 4.345522 2.490426 0.470001
 H 5.328864 1.155583 1.062355
 H 3.108981 -1.471871 -0.644148
 H 3.017099 -0.974173 1.034951
 H 5.512581 -1.048231 1.174266
 H 4.232743 -3.605008 0.100795
 H 4.203761 -3.071843 1.784742
 H 5.744131 -3.505423 1.021130
 H 5.407228 -2.023215 -1.447683