19
charge = 0
 C 0.996028 0.153380 0.179043
 C 2.505682 -0.034588 0.118855
 C 2.874810 -1.480527 0.424177
 C 3.040867 0.431738 -1.233252
 C 4.552388 0.438569 -1.343000
 C 5.084451 1.015010 -2.619810
 O 4.412539 1.441729 -3.518486
 H 0.598768 -0.135947 1.155243
 H 0.499266 -0.462998 -0.577057
 H 0.715568 1.193622 -0.004646
 H 2.955722 0.601317 0.893959
 H 2.473172 -2.151041 -0.342764
 H 2.461325 -1.794199 1.385939
 H 3.955606 -1.632888 0.468655
 H 2.673740 1.441919 -1.438379
 H 2.623997 -0.198247 -2.027179
 H 4.982888 -0.567746 -1.254735
 H 5.013865 1.008164 -0.523049
 H 6.194919 1.027116 -2.695303