17
charge = 0
 C 0.747389 -0.325914 0.093265
 C 2.264073 -0.163539 0.154946
 C 2.709154 1.245761 0.534926
 C 2.405578 2.253405 -0.522496
 C 1.632767 3.319598 -0.368744
 C 2.843680 -1.208710 1.071560
 O 3.603189 -0.999163 1.976296
 H 0.320377 0.364973 -0.634749
 H 0.296062 -0.109649 1.065389
 H 0.464139 -1.341597 -0.193919
 H 2.664810 -0.413695 -0.840738
 H 3.787150 1.222840 0.727293
 H 2.235883 1.533705 1.478551
 H 2.870717 2.079253 -1.492669
 H 1.149746 3.536279 0.579279
 H 1.461546 4.018732 -1.179096
 H 2.505561 -2.246670 0.849886