15
charge = 0
 C 0.949668 -0.150212 -0.034729
 C 2.396556 -0.075707 0.003326
 C 3.598422 0.022536 0.041568
 C 5.023082 0.040161 0.065811
 C 5.727691 1.170701 0.134084
 C 5.675180 -1.320078 0.018283
 O 5.246124 -2.095215 -1.076089
 H 0.579704 -0.055499 -1.059147
 H 0.504035 0.652576 0.557958
 H 0.593197 -1.102470 0.365452
 H 5.244669 2.138008 0.193924
 H 6.811353 1.146034 0.134876
 H 5.475260 -1.840451 0.966796
 H 6.755576 -1.203706 -0.080862
 H 4.282872 -2.092469 -1.072740