13
charge = 0
 C 1.019128 0.011666 0.052997
 C 2.465360 0.052646 0.093811
 C 3.668422 0.085241 0.126219
 C 5.086683 0.085780 0.121659
 C 5.844620 0.821225 0.946134
 C 5.794799 -0.782505 -0.857728
 O 5.264159 -1.497604 -1.660491
 H 0.604207 1.011304 -0.099491
 H 0.613820 -0.380688 0.989290
 H 0.673015 -0.628643 -0.761657
 H 5.414280 1.480230 1.689005
 H 6.926184 0.767029 0.881123
 H 6.901414 -0.713000 -0.783361