17
charge = 0
 C 1.275427 -0.281265 0.605489
 C 2.672438 -0.161894 0.234110
 C 3.832242 -0.080512 -0.069385
 C 5.239735 0.062746 -0.450155
 C 5.911838 1.111840 0.435002
 C 5.340668 0.450093 -1.925155
 O 5.850689 -1.209320 -0.241351
 H 1.022298 0.407151 1.415643
 H 1.052458 -1.295646 0.945519
 H 0.621662 -0.060438 -0.241958
 H 5.857255 0.805879 1.480043
 H 5.428727 2.084407 0.326564
 H 6.963905 1.218045 0.151948
 H 4.837363 1.399290 -2.116864
 H 4.883462 -0.322417 -2.543938
 H 6.392163 0.555669 -2.210545
 H 6.776481 -1.123507 -0.488975