15
charge = 0
 C 0.914326 -0.028050 0.076182
 C 2.365736 -0.027748 0.078167
 C 3.568248 -0.028943 0.090460
 C 5.022377 -0.027912 0.087803
 C 5.602338 0.165853 -1.306848
 C 7.099226 0.171445 -1.342343
 O 7.807863 0.038521 -0.382347
 H 0.522226 -0.251802 1.071533
 H 0.521416 -0.778646 -0.614291
 H 0.520476 0.945276 -0.227196
 H 5.398701 -0.965545 0.508005
 H 5.397928 0.760221 0.747456
 H 5.255387 1.105503 -1.754747
 H 5.256181 -0.616679 -1.993687
 H 7.540481 0.311815 -2.353638