19
charge = 0
 C 1.384184 -1.359051 -0.480498
 C 2.715404 -1.053124 0.198901
 C 3.315538 0.221922 -0.296682
 C 4.523410 0.443066 -0.817519
 C 4.935887 1.803960 -1.286570
 C 5.577721 -0.611184 -0.955343
 O 5.994393 -0.671968 -2.311492
 H 0.932451 -2.266933 -0.073915
 H 1.518543 -1.497376 -1.555701
 H 0.673319 -0.540473 -0.338641
 H 3.397639 -1.894773 0.062397
 H 2.547891 -0.969610 1.280386
 H 2.650953 1.083434 -0.223536
 H 5.817430 2.155919 -0.738530
 H 4.134104 2.530864 -1.149886
 H 5.213007 1.779689 -2.343147
 H 5.211046 -1.585918 -0.619539
 H 6.427651 -0.336693 -0.310868
 H 6.783237 -1.216151 -2.360225