19
charge = 0
 C 2.369636 0.196397 1.381065
 C 3.146222 -0.202674 0.130831
 C 3.236341 0.902723 -0.868986
 C 4.368612 1.426262 -1.325042
 C 4.510557 2.549022 -2.308614
 C 3.208295 3.153109 -2.794634
 O 5.372666 3.548588 -1.772876
 H 2.287798 -0.640823 2.077877
 H 1.356070 0.520074 1.129319
 H 2.861958 1.022283 1.899906
 H 2.649760 -1.064128 -0.333025
 H 4.153215 -0.533088 0.402366
 H 2.285421 1.290630 -1.231812
 H 5.318209 1.038578 -0.957805
 H 5.062080 2.169852 -3.177628
 H 2.621674 3.549752 -1.960700
 H 2.597518 2.416796 -3.322113
 H 3.425767 3.974350 -3.478846
 H 4.999891 3.827996 -0.931083