19
charge = 0
 C 0.887639 0.009020 -0.603505
 C 2.363639 0.009362 -0.252253
 C 2.716139 -0.482620 1.124330
 C 1.811674 -0.746917 2.060766
 C 4.193906 -0.699723 1.375333
 C 5.029592 0.542070 1.089568
 O 4.475572 -1.194196 2.665862
 H 0.740936 0.346115 -1.631755
 H 0.319830 0.679183 0.046006
 H 0.456240 -0.990530 -0.512531
 H 2.761747 1.023174 -0.379785
 H 2.912088 -0.602052 -0.981342
 H 0.752449 -0.606306 1.885865
 H 2.103307 -1.142859 3.025307
 H 4.524620 -1.498562 0.698779
 H 4.957876 0.855645 0.046862
 H 4.700025 1.377094 1.716511
 H 6.076768 0.331564 1.312439
 H 4.255581 -0.504872 3.300263