17
charge = 0
 C 2.306147 -1.343158 0.411958
 C 2.415258 0.109008 -0.045169
 C 2.850983 0.250453 -1.475568
 C 2.024624 0.656712 -2.435093
 C 4.299714 -0.048910 -1.767718
 C 5.142154 1.129146 -1.344052
 O 5.908167 1.126498 -0.421427
 H 1.984049 -1.393800 1.454219
 H 3.263044 -1.864703 0.340613
 H 1.579972 -1.888629 -0.194969
 H 3.126879 0.633211 0.603669
 H 1.448725 0.603721 0.081174
 H 0.993098 0.911993 -2.217222
 H 2.344826 0.739947 -3.468118
 H 4.438801 -0.195709 -2.843017
 H 4.651297 -0.934033 -1.233902
 H 4.979752 2.048460 -1.948179