17
charge = 0
 C 1.970427 -1.405644 0.563347
 C 2.421446 -0.028851 0.084773
 C 2.937902 0.837314 1.196758
 C 1.930594 1.426098 2.092247
 O 0.739047 1.284526 1.946623
 C 4.248653 1.070512 1.367443
 C 4.943176 1.875476 2.409522
 H 1.592053 -1.999224 -0.272013
 H 1.171685 -1.317595 1.301202
 H 2.799602 -1.953274 1.018481
 H 1.573716 0.477029 -0.386202
 H 3.200823 -0.135955 -0.674775
 H 2.311358 2.035924 2.932974
 H 4.919444 0.610758 0.641603
 H 4.280768 2.325041 3.145778
 H 5.521625 2.676554 1.937946
 H 5.666990 1.248900 2.940594