19
charge = 0
 C 2.935299 -0.172882 -1.447008
 C 2.593413 0.069320 0.014242
 C 3.061273 1.418820 0.589435
 C 2.534091 2.606036 -0.198680
 C 2.620695 1.502240 2.054428
 C 4.573395 1.405211 0.598185
 O 5.290687 2.209710 0.072177
 H 2.630689 -1.177091 -1.749424
 H 4.009173 -0.084252 -1.633222
 H 2.428232 0.535216 -2.104978
 H 3.023806 -0.732051 0.627171
 H 1.509212 0.005991 0.158290
 H 1.441633 2.583738 -0.233991
 H 2.916149 2.613154 -1.219764
 H 2.843515 3.543780 0.266312
 H 1.531211 1.443431 2.118035
 H 2.936843 2.443268 2.510903
 H 3.034150 0.679535 2.644921
 H 5.008246 0.548945 1.166378