19
charge = 0
 C 3.041486 1.069207 0.637664
 C 2.565749 0.045131 -0.379662
 C 3.099503 -1.370790 -0.162380
 C 2.477155 -2.344868 -1.155847
 C 4.637868 -1.427574 -0.174639
 C 5.249989 -0.904151 -1.438578
 O 6.001700 0.032464 -1.493176
 H 2.543621 2.028968 0.483864
 H 4.116651 1.245344 0.564148
 H 2.821474 0.742980 1.658576
 H 2.835139 0.380650 -1.389096
 H 1.471383 -0.002157 -0.364114
 H 2.797932 -1.686598 0.844401
 H 2.688639 -2.061358 -2.190202
 H 1.390554 -2.364813 -1.042525
 H 2.846880 -3.362567 -1.005421
 H 4.947065 -2.475401 -0.069170
 H 5.059562 -0.866348 0.660844
 H 4.971170 -1.442917 -2.370267