21
charge = 0
 C 2.961158 -0.105981 1.309581
 C 2.821822 0.497683 -0.078414
 C 3.382584 -0.362287 -1.210698
 C 2.981916 0.219028 -2.567879
 C 3.395459 -0.608353 -3.775133
 C 4.890214 -0.562883 -1.087378
 O 5.631592 0.640418 -1.143709
 H 2.466216 0.518504 2.056866
 H 4.006396 -0.201233 1.611593
 H 2.507280 -1.100486 1.357993
 H 3.316888 1.474003 -0.104576
 H 1.761757 0.684257 -0.283115
 H 2.937304 -1.365635 -1.134247
 H 3.381141 1.237664 -2.658375
 H 1.893750 0.340690 -2.575034
 H 4.481023 -0.669507 -3.888025
 H 2.999083 -0.178245 -4.697687
 H 3.018275 -1.632148 -3.698855
 H 5.238021 -1.269494 -1.851999
 H 5.128280 -1.007959 -0.119372
 H 5.528329 1.020465 -2.019447