19
charge = 0
 C 2.862590 -1.206507 -0.839617
 C 3.081389 -0.114899 0.194794
 C 3.377109 1.260387 -0.409065
 C 3.436001 2.344100 0.670568
 C 3.577861 3.753460 0.120051
 C 4.696682 1.209169 -1.127872
 O 4.873574 1.409963 -2.297482
 H 2.640919 -2.162043 -0.359663
 H 3.742507 -1.349469 -1.472033
 H 2.025712 -0.961009 -1.498425
 H 3.903648 -0.393002 0.865743
 H 2.194823 -0.021398 0.830291
 H 2.609838 1.514106 -1.148512
 H 4.266359 2.122146 1.352379
 H 2.525287 2.270136 1.273666
 H 4.495506 3.872127 -0.461746
 H 3.600023 4.488744 0.927151
 H 2.741705 4.003976 -0.537783
 H 5.558178 0.956292 -0.463053