15
charge = 0
 C 0.979544 -0.086162 -0.010076
 C 2.497233 -0.095075 -0.016010
 C 3.065236 0.556421 -1.281698
 C 4.514011 0.554126 -1.308954
 C 5.719981 0.519963 -1.319264
 C 7.157089 0.539166 -1.302386
 O 7.856542 -0.299022 -1.812632
 H 0.589158 -0.553584 0.895813
 H 0.575927 -0.633308 -0.866242
 H 0.587776 0.933702 -0.052979
 H 2.871215 -1.120119 0.052138
 H 2.883339 0.435009 0.858881
 H 2.706242 1.589120 -1.355474
 H 2.690403 0.029521 -2.166133
 H 7.596855 1.405282 -0.770794