19
charge = 0
 C 1.620965 0.192732 1.147187
 C 2.578350 0.176577 -0.041115
 C 2.607516 -1.126874 -0.782431
 C 1.359077 -1.575153 -1.471770
 C 3.725577 -1.849796 -0.802259
 O 3.813476 -3.065313 -1.402076
 C 5.126975 -3.489748 -1.673989
 H 1.640858 1.162123 1.651249
 H 1.893141 -0.574676 1.876163
 H 0.590739 0.005670 0.835638
 H 3.587986 0.419990 0.304542
 H 2.289087 0.975613 -0.736589
 H 0.582201 -1.859523 -0.754386
 H 1.548138 -2.434679 -2.114170
 H 0.944472 -0.765847 -2.082446
 H 4.633045 -1.508350 -0.305317
 H 5.060590 -4.499848 -2.076591
 H 5.735572 -3.509647 -0.761638
 H 5.613535 -2.840842 -2.411413