17
charge = 0
 C 0.962262 -0.035229 -0.085362
 C 2.474163 -0.135116 0.099830
 C 2.948572 0.503902 1.316693
 C 3.323369 1.027502 2.331904
 C 3.781276 1.684130 3.543306
 O 3.990094 0.743954 4.568990
 C 4.431991 1.357921 5.748184
 H 0.657248 -0.530874 -1.009448
 H 0.645090 1.007856 -0.134524
 H 0.438068 -0.506823 0.747431
 H 2.985720 0.312561 -0.759131
 H 2.778509 -1.187185 0.117257
 H 3.037447 2.432857 3.860494
 H 4.714447 2.232165 3.334918
 H 4.571312 0.573091 6.491332
 H 3.697116 2.081961 6.128357
 H 5.387416 1.881226 5.599568