19
charge = 0
 C 0.701817 -0.225203 -0.154457
 C 2.209895 -0.134999 0.003349
 C 2.841366 0.899302 -0.925199
 C 4.319542 1.031665 -0.750472
 C 5.184299 0.769991 -1.728293
 O 6.530713 0.841213 -1.696804
 C 7.112031 1.237299 -0.479679
 H 0.271709 -0.971387 0.517523
 H 0.428300 -0.502482 -1.176547
 H 0.223617 0.733910 0.064435
 H 2.667165 -1.110990 -0.190374
 H 2.458673 0.115418 1.041030
 H 2.357835 1.868703 -0.744265
 H 2.616016 0.638145 -1.965547
 H 4.673327 1.343398 0.227617
 H 4.848850 0.455108 -2.712000
 H 8.189723 1.239599 -0.635229
 H 6.860264 0.537565 0.325411
 H 6.781938 2.242024 -0.191909