19
charge = 0
 C 0.807903 -0.235337 -0.201662
 C 2.161937 0.452443 -0.211491
 C 3.132352 -0.163562 0.793510
 C 4.468741 0.505208 0.817174
 C 5.607485 -0.080482 0.441598
 O 4.356363 1.778749 1.260711
 C 5.531821 2.547604 1.322553
 H 0.127217 0.214402 -0.928039
 H 0.336301 -0.165269 0.782718
 H 0.900235 -1.297305 -0.447129
 H 2.042840 1.515841 0.013267
 H 2.603503 0.393792 -1.211932
 H 3.276346 -1.223607 0.570762
 H 2.695187 -0.101121 1.797362
 H 5.584120 -1.107375 0.105370
 H 6.566172 0.418264 0.455338
 H 5.241414 3.528666 1.695439
 H 5.988391 2.652872 0.332410
 H 6.262141 2.098906 2.004731