15
charge = 0
 C 0.984698 -0.093047 0.088608
 C 2.460224 -0.034377 -0.069834
 C 3.162075 0.731100 -0.913145
 C 2.604624 1.709589 -1.895136
 C 4.640548 0.646218 -0.922323
 O 5.164630 -0.231294 -0.043193
 O 5.343352 1.301823 -1.651250
 H 0.706479 0.149131 1.119568
 H 0.626516 -1.111872 -0.092068
 H 0.447214 0.580513 -0.576930
 H 3.025393 -0.694814 0.580497
 H 1.517411 1.748099 -1.863738
 H 2.915720 1.452397 -2.910371
 H 2.995231 2.711296 -1.701116
 H 6.122094 -0.177372 -0.162478