13
charge = 0
 C 0.906851 -0.076321 -0.090918
 C 2.442636 -0.076049 -0.012466
 C 2.961373 1.219633 0.391951
 C 3.366964 2.305055 0.699536
 C 2.884795 -1.181391 0.931936
 O 2.871410 -2.368841 0.299575
 O 3.169049 -1.059203 2.087071
 H 0.575550 0.689565 -0.792093
 H 0.478698 0.143395 0.887869
 H 0.545563 -1.047611 -0.431118
 H 2.837263 -0.323986 -1.003117
 H 3.733911 3.262752 0.983907
 H 3.110838 -3.035887 0.958366