13
charge = 0
 C 0.956579 -0.101716 -0.055396
 C 2.395722 0.071427 -0.087818
 C 3.587167 0.211703 -0.130825
 C 5.024319 0.383271 -0.170231
 C 5.638995 0.200005 -1.540576
 O 6.971739 0.379160 -1.471437
 O 5.067062 -0.063895 -2.556505
 H 0.673335 -0.915673 0.616444
 H 0.575147 -0.338950 -1.051559
 H 0.458533 0.808258 0.288146
 H 5.525070 -0.319373 0.505178
 H 5.313440 1.379375 0.183071
 H 7.313792 0.251919 -2.367191