15
charge = 0
 C 1.023982 -0.133977 0.291176
 C 2.493096 -0.210220 0.072872
 C 3.149492 -0.632553 -1.019396
 C 2.488866 -1.115633 -2.284721
 O 2.748432 -0.274878 -3.389326
 C 4.575218 -0.625282 -1.034197
 C 5.777489 -0.641626 -1.076754
 H 0.742106 0.874608 0.609680
 H 0.724561 -0.805586 1.102893
 H 0.436210 -0.389366 -0.589334
 H 3.104238 0.113486 0.911819
 H 1.412441 -1.239888 -2.126968
 H 2.896733 -2.092244 -2.555710
 H 2.533997 0.626702 -3.134914
 H 6.840957 -0.651262 -1.111600