15
charge = 0
 C 0.703907 0.168402 0.288804
 C 2.173502 -0.023766 0.317361
 C 3.073297 0.910493 0.623500
 C 4.522433 0.613993 0.622308
 O 4.963498 -0.483961 0.345545
 C 5.418022 1.746406 0.983048
 C 6.737231 1.600052 1.016350
 H 0.306550 -0.061799 -0.705318
 H 0.415852 1.187179 0.552357
 H 0.213318 -0.524303 0.980648
 H 2.558151 -1.011110 0.067702
 H 2.760121 1.918354 0.882752
 H 4.955360 2.700102 1.219099
 H 7.178071 0.638034 0.776815
 H 7.397757 2.418136 1.277718