17
charge = 0
 C 1.689750 -1.857544 -3.561425
 C 2.971430 -1.180505 -3.218798
 C 3.192905 -0.493855 -2.103481
 C 4.492207 0.152297 -1.709068
 O 5.019838 -0.487400 -0.559850
 C 5.480446 0.264527 -2.831759
 C 6.723217 -0.190928 -2.796953
 H 1.273136 -1.460329 -4.492537
 H 0.945360 -1.732584 -2.772961
 H 1.843842 -2.929240 -3.722299
 H 3.774413 -1.266267 -3.948721
 H 2.403348 -0.411377 -1.358433
 H 4.268689 1.173875 -1.371336
 H 5.035497 -1.431978 -0.743312
 H 5.119086 0.787300 -3.714383
 H 7.113430 -0.690638 -1.917417
 H 7.394193 -0.059553 -3.637576