15
charge = 0
 C 0.927550 0.045653 -0.079808
 C 2.412231 -0.045714 -0.133293
 C 3.147182 -0.946512 0.504554
 C 4.646477 -0.993307 0.437545
 O 5.250822 -0.678761 1.683836
 C 5.104157 -2.292853 -0.058324
 C 5.461944 -3.376211 -0.432783
 H 0.610006 1.022721 0.297601
 H 0.500469 -0.725746 0.563327
 H 0.492278 -0.060720 -1.078454
 H 2.921584 0.693061 -0.751171
 H 2.673943 -1.704708 1.126270
 H 4.990221 -0.215424 -0.251467
 H 5.164366 -1.445524 2.258152
 H 5.786378 -4.330865 -0.774167