13
charge = 0
 C 1.082349 0.120529 -0.064852
 C 2.577521 0.044518 0.018234
 C 3.293980 -0.905665 0.653125
 C 2.740008 -2.042054 1.380706
 O 3.430778 -2.866066 1.932546
 C 3.266784 1.094135 -0.650122
 C 3.810632 1.998906 -1.227395
 H 0.583905 -0.694214 0.454093
 H 0.772088 0.111457 -1.112781
 H 0.739077 1.068237 0.357670
 H 4.377362 -0.852027 0.642409
 H 1.637204 -2.131709 1.414582
 H 4.306702 2.793243 -1.734015