15
charge = 0
 C 0.848479 0.108154 0.462769
 C 2.311554 0.076741 0.126014
 C 2.880549 -0.647347 -0.849673
 C 2.204090 -1.549695 -1.822757
 O 2.567356 -1.244819 -3.157615
 C 3.136173 0.893996 0.955278
 C 3.791722 1.597008 1.679298
 H 0.243463 -0.440580 -0.257016
 H 0.494425 1.140858 0.505207
 H 0.680166 -0.325843 1.452117
 H 3.957372 -0.572479 -0.975849
 H 1.115461 -1.542131 -1.699719
 H 2.537562 -2.580136 -1.663023
 H 2.375475 -0.315428 -3.310050
 H 4.384962 2.214210 2.311539