17
charge = 0
 C 0.734984 -0.089727 -0.167090
 C 2.222556 -0.146802 -0.037325
 C 2.918208 -1.314105 -0.656620
 C 2.869204 0.817803 0.608911
 O 4.226119 0.815872 0.757128
 C 4.791782 1.842115 1.431579
 C 6.099044 1.927729 1.626128
 H 0.268301 -0.973016 0.282523
 H 0.433772 -0.077065 -1.220302
 H 0.315411 0.795589 0.314516
 H 2.549606 -2.253202 -0.229917
 H 3.996543 -1.270202 -0.511672
 H 2.715072 -1.357625 -1.732115
 H 2.355097 1.664224 1.056879
 H 4.095612 2.591386 1.802295
 H 6.779806 1.174389 1.251290
 H 6.499895 2.769236 2.172282