19
charge = 0
 C 0.894932 0.017214 -0.048484
 C 2.423234 0.044238 -0.075994
 C 2.912687 1.276331 -0.824691
 C 2.923662 0.087588 1.380346
 O 4.323523 0.114300 1.494850
 C 2.926123 -1.242729 -0.670999
 C 3.879591 -1.386719 -1.583409
 H 0.503285 0.909896 0.446998
 H 0.521773 -0.859241 0.488839
 H 0.488598 -0.012025 -1.062057
 H 2.476357 2.176904 -0.385143
 H 2.621188 1.238467 -1.876955
 H 3.997614 1.375360 -0.765441
 H 2.497552 -0.766393 1.928777
 H 2.557495 1.001216 1.857532
 H 4.670866 -0.611773 0.964176
 H 2.462090 -2.140024 -0.260271
 H 4.378093 -0.536586 -2.035794
 H 4.182436 -2.370024 -1.925090