17
charge = 0
 C 0.948929 0.037593 -0.085771
 C 2.478213 0.055175 -0.123566
 C 2.977858 0.680779 -1.428582
 C 2.996424 0.863972 1.082080
 O 4.394794 0.887842 1.183238
 C 2.997542 -1.306994 0.002662
 C 3.457349 -2.409352 0.139129
 H 0.563583 1.059356 -0.140070
 H 0.581736 -0.423572 0.833163
 H 0.548684 -0.523661 -0.931708
 H 2.555963 1.683053 -1.540790
 H 2.675371 0.079977 -2.288028
 H 4.064903 0.762946 -1.423832
 H 2.535798 0.466043 1.996843
 H 2.674825 1.902710 0.966111
 H 4.695225 -0.025322 1.252540
 H 3.847604 -3.394245 0.243682