19
charge = 0
 C 0.918649 0.213365 -0.670847
 C 2.355367 0.205505 -0.165642
 C 2.844187 1.615939 0.126035
 C 2.528292 -0.696596 1.069815
 O 1.755956 -0.260494 2.166038
 C 2.307807 -2.142949 0.739877
 C 1.578378 -2.990886 1.450445
 H 0.839250 0.787204 -1.596798
 H 0.249630 0.688054 0.054042
 H 0.547980 -0.795837 -0.867730
 H 2.990804 -0.226783 -0.949456
 H 2.274347 2.056358 0.947446
 H 2.730881 2.259022 -0.750187
 H 3.899264 1.620012 0.412237
 H 3.569106 -0.586348 1.402769
 H 0.832561 -0.441610 1.964634
 H 2.805977 -2.491855 -0.162782
 H 1.089835 -2.686342 2.369784
 H 1.464128 -4.024959 1.147930