17
charge = 0
 C 0.957176 0.091527 0.061077
 C 2.471456 0.007085 0.168481
 C 2.915902 -0.349201 1.577602
 C 3.045123 -0.958656 -0.883214
 O 4.458018 -0.895642 -0.951140
 C 2.584411 -2.334149 -0.689499
 C 2.230075 -3.467290 -0.508524
 H 0.565369 0.847673 0.744992
 H 0.492541 -0.864742 0.315658
 H 0.640332 0.360018 -0.950452
 H 2.899430 0.981031 -0.095330
 H 2.538025 -1.332954 1.870051
 H 2.535931 0.381828 2.294924
 H 4.004971 -0.355748 1.669075
 H 2.697146 -0.622432 -1.866394
 H 4.816109 -1.457085 -0.258109
 H 1.915563 -4.473664 -0.361207