19
charge = 0
 C 0.897873 0.235884 -2.253854
 C 2.053326 0.787705 -1.432509
 C 2.139685 2.303372 -1.540237
 C 1.940737 0.388864 0.025080
 O 1.998159 -1.020137 0.127468
 C 1.905465 -1.546682 1.360043
 C 1.761700 -0.909559 2.518954
 H 1.012600 0.493140 -3.309636
 H -0.053825 0.654779 -1.910626
 H 0.837052 -0.850285 -2.172377
 H 2.987941 0.357035 -1.811901
 H 1.232007 2.776378 -1.151931
 H 2.249592 2.611726 -2.582189
 H 2.990910 2.701756 -0.981896
 H 0.992287 0.749033 0.449249
 H 2.758332 0.829156 0.610895
 H 1.965732 -2.629029 1.310117
 H 1.698437 0.166099 2.607078
 H 1.703992 -1.493635 3.426782