15
charge = 0
 C 0.928949 -0.029904 -0.095802
 C 2.378877 -0.017277 -0.088723
 C 3.581764 -0.006179 -0.067076
 C 5.043818 0.003473 -0.087534
 O 5.569295 -1.250026 -0.504072
 C 5.557346 1.126137 -0.946344
 C 6.333999 2.099204 -0.497778
 H 0.532184 0.672819 -0.832572
 H 0.533044 0.248326 0.883985
 H 0.549123 -1.025155 -0.339790
 H 5.415740 0.148128 0.932062
 H 5.037652 -1.560141 -1.242982
 H 5.255037 1.092996 -1.990723
 H 6.638924 2.143114 0.543252
 H 6.692068 2.887873 -1.149001