19
charge = 0
 C 1.028651 0.296008 0.468819
 C 2.543805 0.205384 0.407539
 C 3.054670 -0.177739 -0.972494
 C 4.566833 -0.313399 -1.032311
 O 5.048868 -1.287294 -0.111695
 C 5.129680 -0.603209 -2.392992
 C 4.451991 -0.736731 -3.524765
 H 0.685352 0.578839 1.466531
 H 0.565271 -0.663003 0.219520
 H 0.644864 1.038721 -0.236711
 H 2.906955 -0.523514 1.136991
 H 2.981957 1.167828 0.696377
 H 2.736207 0.576091 -1.701456
 H 2.597304 -1.125251 -1.286582
 H 5.011275 0.625567 -0.677452
 H 4.799879 -2.152554 -0.451316
 H 6.209620 -0.737162 -2.398106
 H 3.375391 -0.616877 -3.573251
 H 4.957936 -0.966805 -4.455426