19
charge = 0
 C 0.994984 -0.287939 0.416799
 C 2.492235 -0.076451 0.270274
 C 2.963210 -0.186453 -1.170936
 C 4.451378 0.024908 -1.307486
 O 4.800058 -0.094326 -2.672793
 C 6.096659 0.065135 -2.987380
 C 7.116626 0.324838 -2.173863
 H 0.679600 -0.204514 1.459144
 H 0.699674 -1.277765 0.058136
 H 0.433943 0.451878 -0.160701
 H 3.026984 -0.809093 0.885892
 H 2.763141 0.908261 0.668594
 H 2.442543 0.549978 -1.792319
 H 2.707097 -1.171913 -1.574439
 H 5.008252 -0.718696 -0.721346
 H 4.741260 1.019140 -0.941306
 H 6.237641 -0.048609 -4.057419
 H 7.014872 0.444560 -1.104246
 H 8.105455 0.422941 -2.599507