13
charge = 0
 C 1.206891 0.103008 0.339717
 C 2.526184 -0.003509 0.181721
 C 3.157937 -0.768866 -0.867502
 C 4.479804 -0.852329 -0.994176
 O 5.020505 -1.595669 -2.012889
 C 6.362645 -1.656977 -2.105992
 O 7.141439 -1.121212 -1.379852
 H 0.779565 0.689515 1.143199
 H 0.515106 -0.394748 -0.331944
 H 3.188431 0.510013 0.875146
 H 2.525114 -1.294186 -1.577221
 H 5.198148 -0.369701 -0.343325
 H 6.622221 -2.286350 -2.967280