13
charge = 0
 C 0.788868 0.840737 0.118967
 C 2.083413 0.577459 0.250916
 C 2.652982 -0.396470 1.185041
 C 2.060982 -1.519619 1.582542
 O 3.918900 0.040031 1.558306
 C 4.753376 -0.627724 2.368485
 O 4.566592 -1.669933 2.915641
 H 0.438235 1.555310 -0.615295
 H 0.041589 0.359962 0.740462
 H 2.810583 1.116444 -0.350251
 H 1.090526 -1.748259 1.162381
 H 2.505547 -2.204109 2.284430
 H 5.675518 -0.034439 2.452604