15
charge = 0
 C 0.976626 -0.033909 0.160132
 C 2.405364 0.337634 -0.062361
 C 2.853622 1.592733 -0.037895
 C 3.334928 -0.789923 -0.320540
 O 2.931731 -1.934979 -0.344352
 C 4.812865 -0.549325 -0.562236
 O 5.476495 -1.750546 -0.779453
 H 0.366850 0.851347 0.341229
 H 0.882742 -0.712442 1.011218
 H 0.578826 -0.570942 -0.704102
 H 2.183155 2.424049 0.149776
 H 3.895882 1.838424 -0.202297
 H 5.231860 -0.024335 0.307378
 H 4.924813 0.119679 -1.426710
 H 4.790760 -2.434945 -0.714798