13
charge = 0
 C 0.955789 0.062485 0.285225
 C 2.380435 0.336306 -0.084775
 C 2.938485 1.540137 0.055276
 C 3.263418 -0.731669 -0.635936
 O 4.418237 -0.551655 -0.951715
 C 2.768626 -2.167768 -0.848963
 O 1.673928 -2.586667 -0.608372
 H 0.492522 0.975100 0.662838
 H 0.877521 -0.710876 1.051505
 H 0.376795 -0.294509 -0.568481
 H 2.373523 2.377851 0.448019
 H 3.972845 1.703407 -0.222588
 H 3.578588 -2.799230 -1.268523