15
charge = 0
 C 1.073306 0.041115 0.032504
 C 2.596885 0.041576 0.023848
 C 3.160490 0.343612 1.418754
 C 3.076892 -1.340241 -0.372906
 O 3.718150 -1.600564 -1.351193
 C 3.158477 1.065717 -0.943007
 O 2.496821 1.872693 -1.531410
 H 0.692685 -0.724965 0.712706
 H 0.673355 -0.143106 -0.965523
 H 0.703279 1.012050 0.364509
 H 2.883802 -0.448256 2.119822
 H 2.753108 1.284645 1.793872
 H 4.250799 0.418753 1.406311
 H 2.770666 -2.139009 0.340948
 H 4.261877 1.039669 -1.051344