15
charge = 0
 C 0.928779 -0.027923 -0.042733
 C 2.428094 0.197413 0.153030
 C 2.975626 1.324056 -0.696962
 C 4.473076 1.332042 -0.804201
 O 5.189651 0.454301 -0.408494
 C 2.691877 0.437543 1.618231
 O 3.112630 1.460226 2.083078
 H 0.718533 -0.335695 -1.068766
 H 0.364513 0.885547 0.161300
 H 0.554293 -0.810405 0.621972
 H 2.955642 -0.732142 -0.094435
 H 2.662936 2.299785 -0.309143
 H 2.586383 1.270482 -1.722464
 H 4.900163 2.223315 -1.311470
 H 2.431802 -0.418845 2.278157