13
charge = 0
 C 1.072055 0.016067 -0.113714
 C 2.517274 -0.037026 -0.107187
 C 3.722101 -0.077696 -0.068176
 C 5.168937 -0.141452 -0.050626
 O 5.803979 -0.192561 0.974086
 C 5.844528 -0.196122 -1.410032
 O 5.058241 0.224421 -2.487853
 H 0.710165 0.706524 -0.879052
 H 0.692432 0.342618 0.856887
 H 0.656200 -0.972274 -0.325949
 H 6.201173 -1.231352 -1.531828
 H 6.726455 0.445391 -1.363509
 H 4.180851 -0.161529 -2.394335