15
charge = 0
 C 2.193733 1.391842 -0.757578
 C 3.122162 0.233154 -0.409780
 C 3.280091 0.044686 1.061267
 C 4.442059 0.125758 1.687430
 O 4.500120 -0.054218 3.055011
 C 5.698994 0.039359 3.651307
 O 6.739995 0.266587 3.113946
 H 2.071240 1.483936 -1.839036
 H 2.588916 2.336617 -0.377810
 H 1.202263 1.246946 -0.320558
 H 4.103669 0.389055 -0.867328
 H 2.720062 -0.688656 -0.847098
 H 2.386427 -0.157446 1.647255
 H 5.394766 0.325806 1.213437
 H 5.566014 -0.129226 4.728526