15
charge = 0
 C 3.502515 0.423292 2.228002
 C 3.062839 0.339767 0.773477
 C 3.319363 1.614181 -0.018345
 C 2.540681 2.816643 0.470005
 O 2.721100 3.935743 0.077185
 C 4.786699 1.957453 -0.194768
 O 5.673503 1.167560 -0.032717
 H 3.263033 -0.502095 2.755075
 H 3.002552 1.237720 2.760184
 H 4.579340 0.580052 2.303315
 H 1.993980 0.108074 0.718178
 H 3.586042 -0.482711 0.280903
 H 2.964820 1.482333 -1.054831
 H 1.752566 2.596919 1.221570
 H 4.982678 3.001061 -0.506734