19
charge = 0
 C 2.723499 0.587007 -1.521789
 C 2.613501 0.270681 -0.039557
 C 3.191998 1.315484 0.915170
 C 2.517761 2.670504 0.775267
 O 3.042892 0.839097 2.257248
 C 4.701793 1.469530 0.759824
 O 5.391233 0.263908 0.966346
 H 2.271725 -0.211252 -2.114422
 H 3.766228 0.671815 -1.834947
 H 2.213191 1.516671 -1.783395
 H 3.116109 -0.677066 0.170178
 H 1.555380 0.135554 0.222866
 H 1.433542 2.575736 0.884877
 H 2.718851 3.123668 -0.197949
 H 2.880279 3.347368 1.551200
 H 2.150751 0.497720 2.362212
 H 5.035747 2.242497 1.466518
 H 4.944386 1.813496 -0.247541
 H 5.070431 -0.084519 1.805697