19
charge = 0
 C 2.984866 1.125027 -0.277237
 C 2.794267 -0.383883 -0.308409
 C 3.433851 -1.136172 0.858798
 C 2.903767 -2.565706 0.920181
 O 3.294790 -3.275028 2.069736
 C 4.953605 -1.114572 0.749845
 O 5.617807 -1.741576 1.841286
 H 2.455739 1.601438 -1.105529
 H 4.035296 1.413640 -0.357300
 H 2.593981 1.549745 0.651616
 H 3.181598 -0.786393 -1.252365
 H 1.721408 -0.603574 -0.309363
 H 3.144891 -0.636621 1.795306
 H 3.211316 -3.096618 0.003346
 H 1.809952 -2.545919 0.925100
 H 4.248505 -3.151181 2.159032
 H 5.321403 -0.089478 0.629034
 H 5.260949 -1.676901 -0.137581
 H 5.483628 -1.200827 2.624615