15
charge = 0
 C 0.966173 -0.019898 -0.085820
 C 2.441064 0.208165 -0.367825
 C 3.326288 -0.790183 0.350968
 C 4.788502 -0.602344 0.101308
 O 5.272681 0.250332 -0.599787
 C 5.750977 -1.571923 0.792242
 O 5.394674 -2.460043 1.512062
 H 0.346780 0.708931 -0.612448
 H 0.746657 0.068406 0.981882
 H 0.649225 -1.016651 -0.405194
 H 2.730421 1.220747 -0.072490
 H 2.634172 0.148842 -1.442750
 H 3.079226 -1.824914 0.079215
 H 3.174675 -0.761945 1.438061
 H 6.815575 -1.367612 0.557585