17
charge = 0
 C 0.317637 0.585308 -1.023153
 C 1.776486 0.290793 -0.950288
 C 2.535206 0.083989 -2.018122
 O 3.874867 -0.133415 -1.926905
 C 4.455879 -0.678994 -3.070214
 C 4.773857 0.222725 -4.220485
 C 5.866313 -0.303444 -3.327763
 H -0.267689 -0.151246 -0.463386
 H -0.038842 0.580467 -2.055826
 H 0.083237 1.565232 -0.594484
 H 2.247358 0.253834 0.028345
 H 2.135431 0.102252 -3.030921
 H 4.141396 -1.697861 -3.283515
 H 4.510098 1.266941 -4.108132
 H 4.683672 -0.169225 -5.225927
 H 6.308709 0.395208 -2.629248
 H 6.538697 -1.060393 -3.710388