17
charge = 0
 C 3.660231 0.706936 -2.519102
 C 4.129195 0.115121 -1.235473
 C 4.693431 -1.085944 -1.114547
 O 3.894084 0.976317 -0.210409
 C 4.220445 0.547544 1.073876
 C 5.617393 0.739128 1.564691
 C 4.501407 1.622040 2.056963
 H 3.845970 0.028433 -3.350077
 H 4.175708 1.651995 -2.710597
 H 2.590341 0.925722 -2.469198
 H 4.826468 -1.697937 -1.995367
 H 5.038864 -1.476900 -0.168301
 H 3.669281 -0.332774 1.393840
 H 6.318694 1.173834 0.863894
 H 6.037289 -0.000220 2.235555
 H 4.472334 2.637199 1.682046
 H 4.141064 1.495925 3.069885