19
charge = 0
 C 1.091610 -0.195211 0.134418
 C 2.594412 0.055688 0.156643
 C 2.946101 1.164814 1.140526
 O 3.274060 -1.141636 0.522393
 C 3.075678 0.426235 -1.231220
 C 4.490904 0.192087 -1.652335
 C 3.381497 -0.620234 -2.254130
 H 0.730200 -0.471468 1.130248
 H 0.858034 -1.006140 -0.557616
 H 0.546990 0.698401 -0.180288
 H 2.610193 0.907838 2.150369
 H 2.467329 2.106562 0.861086
 H 4.026536 1.317302 1.161683
 H 2.979987 -1.390723 1.402186
 H 2.610810 1.334833 -1.601355
 H 5.138192 -0.314014 -0.947712
 H 4.973802 0.943729 -2.264614
 H 3.309357 -1.653650 -1.940325
 H 3.099019 -0.429491 -3.282157