17
charge = 0
 C 1.087801 0.067120 0.033892
 C 2.567285 -0.137379 -0.258253
 C 2.806132 -0.457825 -1.729032
 O 3.303826 1.021119 0.104454
 C 3.083698 -1.286872 0.583720
 C 4.317732 -1.216065 1.355405
 O 3.047190 -1.139551 1.988431
 H 0.690150 0.893186 -0.564823
 H 0.945939 0.291890 1.092278
 H 0.509284 -0.826185 -0.212254
 H 2.443056 0.361550 -2.354435
 H 2.286067 -1.370241 -2.031543
 H 3.873980 -0.583723 -1.918201
 H 2.765734 1.792134 -0.088863
 H 2.752487 -2.264549 0.232117
 H 4.880954 -0.289081 1.351443
 H 4.878195 -2.126938 1.552285