17
charge = 0
 C 1.254741 0.122693 -0.728916
 C 2.619878 -0.031329 -0.067695
 C 3.161688 1.314294 0.411775
 O 2.311660 1.976863 1.314105
 C 2.558960 -1.074588 1.022196
 C 3.509774 -1.187976 2.123105
 O 2.212022 -0.647288 2.343503
 H 1.308937 0.814851 -1.572131
 H 0.524642 0.519095 -0.021498
 H 0.886751 -0.836172 -1.102401
 H 3.329536 -0.411398 -0.815853
 H 3.271479 1.973523 -0.453676
 H 4.167841 1.183809 0.836812
 H 2.125591 1.351082 2.025884
 H 2.044973 -1.991740 0.733268
 H 4.327890 -0.479403 2.214026
 H 3.682838 -2.158615 2.580466