19
charge = 0
 C 5.564016 -0.980376 -4.056474
 C 5.753981 0.221109 -3.190600
 C 5.175655 0.334672 -1.996510
 O 5.222270 1.350583 -1.111538
 C 5.996763 2.504699 -1.427660
 C 5.439716 3.632939 -0.588974
 C 7.467844 2.254520 -1.154072
 H 5.115677 -0.716195 -5.019833
 H 4.911140 -1.714050 -3.577819
 H 6.515824 -1.475142 -4.275983
 H 6.390490 1.010836 -3.575471
 H 4.548528 -0.463378 -1.608292
 H 5.847747 2.739409 -2.489425
 H 5.532873 3.396330 0.473576
 H 4.384902 3.797952 -0.814031
 H 5.986692 4.557367 -0.785724
 H 7.623106 2.068870 -0.088516
 H 8.060888 3.126006 -1.441258
 H 7.836097 1.391140 -1.709386