17
charge = 0
 C 1.614527 0.564781 -0.169823
 C 2.472804 -0.221339 0.759333
 C 2.112327 -1.383502 1.281733
 O 2.881862 -2.022031 2.209955
 C 2.918954 -3.385499 2.199208
 C 3.488579 -3.896289 3.475083
 C 2.518408 -4.140928 1.178940
 H 1.366944 1.544978 0.249965
 H 0.677563 0.046354 -0.384246
 H 2.124593 0.748476 -1.120393
 H 3.442051 0.185472 1.034325
 H 1.167056 -1.872523 1.056272
 H 2.868986 -3.588152 4.321448
 H 4.486220 -3.478587 3.634584
 H 3.559431 -4.982602 3.460983
 H 2.157159 -3.720915 0.250350
 H 2.575144 -5.216985 1.260683