17
charge = 0
 C 2.494759 -6.286101 0.050240
 C 3.488740 -5.174975 -0.026221
 C 3.132366 -3.893428 0.025119
 O 3.920942 -2.800166 -0.034030
 C 5.308067 -3.024491 -0.189050
 C 5.993974 -1.707771 -0.288852
 C 7.051220 -1.368078 0.432148
 H 2.525310 -6.915284 -0.845079
 H 1.477176 -5.901973 0.151585
 H 2.689826 -6.941848 0.904845
 H 4.533220 -5.450880 -0.125793
 H 2.092157 -3.599218 0.129056
 H 5.475062 -3.612618 -1.103863
 H 5.697451 -3.604380 0.657340
 H 5.586026 -1.019282 -1.024631
 H 7.466473 -2.037619 1.179136
 H 7.543633 -0.411789 0.301159