17
charge = 0
 C 1.058523 -0.195124 -0.180538
 C 2.381551 0.466099 0.164003
 C 3.038468 1.090669 -1.050745
 O 2.542405 1.167020 -2.139796
 C 2.297642 1.526988 1.241034
 C 1.248536 2.580736 1.070498
 C 3.148566 1.531991 2.262829
 H 1.209317 -0.986001 -0.916819
 H 0.359738 0.519136 -0.617362
 H 0.603582 -0.630785 0.711015
 H 3.099510 -0.286904 0.515592
 H 4.052250 1.502932 -0.853977
 H 0.244397 2.155084 1.154909
 H 1.307488 3.045950 0.081018
 H 1.350616 3.360558 1.825495
 H 3.899826 0.758509 2.380937
 H 3.116075 2.306844 3.021016