19
charge = 0
 C 0.868405 0.499832 1.976955
 C 1.554028 -0.286498 0.871685
 C 2.796988 -0.990925 1.369176
 O 0.709486 -1.289503 0.333179
 C -0.289793 -0.810701 -0.533092
 C -1.089466 -1.964040 -1.032115
 C -1.359674 -2.188925 -2.308764
 H 1.543834 1.259202 2.378288
 H 0.581330 -0.171046 2.790631
 H -0.027503 1.012318 1.621009
 H 1.834254 0.405740 0.061163
 H 2.535495 -1.701594 2.157087
 H 3.511522 -0.272196 1.775964
 H 3.276127 -1.540893 0.557794
 H 0.157323 -0.262803 -1.376443
 H -0.957624 -0.111138 -0.006175
 H -1.471788 -2.632753 -0.264713
 H -0.976928 -1.541062 -3.091530
 H -1.975236 -3.024697 -2.620307