17
charge = 0
 C 1.015201 -0.046906 0.006042
 C 2.488098 -0.058291 0.260052
 C 2.887629 -0.472838 1.645843
 O 2.410578 0.429784 2.631759
 C 3.364711 0.297691 -0.692589
 C 4.809014 0.344726 -0.599288
 C 5.597626 0.702963 -1.613854
 H 0.603704 -1.059914 0.081690
 H 0.777506 0.346557 -0.983029
 H 0.497701 0.554272 0.758629
 H 3.969839 -0.606874 1.732723
 H 2.422579 -1.433440 1.888409
 H 2.779551 1.295585 2.435803
 H 2.960501 0.588444 -1.661312
 H 5.273160 0.077329 0.345350
 H 5.184937 0.977644 -2.579530
 H 6.675454 0.731589 -1.512089