19
charge = 0
 C 1.268960 0.070758 -0.248568
 C 2.502635 -0.527527 0.415341
 C 2.791778 0.184500 1.740801
 O 3.996238 -0.227431 2.333890
 C 2.404114 -2.015272 0.647223
 C 1.135222 -2.550077 1.236581
 C 3.437928 -2.813289 0.381457
 H 1.431553 1.128268 -0.469809
 H 0.388371 0.000484 0.395363
 H 1.038683 -0.436090 -1.188264
 H 3.371267 -0.350153 -0.228003
 H 1.942186 0.045115 2.427664
 H 2.884334 1.258305 1.556151
 H 4.031402 -1.189749 2.273103
 H 0.303074 -2.444688 0.534134
 H 0.850576 -2.005424 2.142184
 H 1.232895 -3.606236 1.489279
 H 4.347641 -2.427039 -0.066202
 H 3.398822 -3.879335 0.580056