19
charge = 0
 C 1.026418 -0.496933 0.430520
 C 2.331834 -0.421940 -0.344907
 C 2.530961 -1.661196 -1.208034
 O 2.579324 -2.862163 -0.464052
 C 2.398039 0.850212 -1.196700
 C 3.741917 1.127297 -1.785561
 C 3.998448 1.302098 -3.074541
 H 0.958391 -1.432567 0.987523
 H 0.171495 -0.452232 -0.251913
 H 0.934502 0.333537 1.135025
 H 3.163654 -0.385230 0.375022
 H 3.429736 -1.546199 -1.826805
 H 1.680390 -1.769333 -1.889244
 H 3.379924 -2.853920 0.066382
 H 2.113482 1.695761 -0.557853
 H 1.646136 0.798041 -1.992879
 H 4.564637 1.196421 -1.073973
 H 3.212291 1.242638 -3.821283
 H 4.999631 1.515015 -3.431113