19
charge = 0
 C 1.049845 0.235600 -0.009724
 C 2.492083 -0.096979 -0.352536
 C 3.281519 -0.569946 0.857066
 O 2.693784 -1.732923 1.436199
 C 4.757282 -0.812072 0.630489
 C 5.546431 -1.068766 1.876243
 C 5.316275 -0.822964 -0.575793
 H 0.492274 0.535045 -0.899738
 H 0.997024 1.059004 0.708042
 H 0.547051 -0.624029 0.436129
 H 2.988495 0.781490 -0.776192
 H 2.520597 -0.874502 -1.125518
 H 3.186705 0.189946 1.643883
 H 2.831191 -2.457706 0.817801
 H 5.550053 -0.180013 2.516514
 H 6.580418 -1.331734 1.650086
 H 5.094753 -1.873414 2.461464
 H 4.751756 -0.627136 -1.479113
 H 6.375156 -1.024811 -0.697903