17
charge = 0
 C 0.670125 -1.587025 3.821857
 C 2.104830 -1.615032 3.411613
 C 2.608708 -0.768810 2.517592
 O 3.879186 -0.692287 2.063104
 C 4.819951 -1.596340 2.606759
 C 6.154989 -1.269515 1.988061
 O 6.591870 0.025937 2.317690
 H 0.174084 -2.539703 3.610942
 H 0.121503 -0.802554 3.295828
 H 0.563972 -1.405437 4.896043
 H 2.739249 -2.363082 3.875068
 H 1.992228 -0.013519 2.039532
 H 4.528981 -2.630073 2.377711
 H 4.863449 -1.474591 3.696264
 H 6.090830 -1.403417 0.899185
 H 6.905789 -1.966324 2.368077
 H 5.887946 0.632772 2.069074