15
charge = 0
 C -0.005486 0.181829 0.002681
 C 1.439025 -0.141561 0.162695
 C 2.274502 -0.260203 -0.856270
 O 3.598359 -0.561377 -0.631104
 C 4.415950 -0.672920 -1.706183
 C 5.807182 -1.001977 -1.267132
 O 4.052751 -0.524776 -2.838216
 H -0.636129 -0.607658 0.423111
 H -0.273875 0.304758 -1.048224
 H -0.264144 1.106106 0.528578
 H 1.824589 -0.287122 1.168193
 H 2.007340 -0.138081 -1.898635
 H 6.179841 -0.222241 -0.600047
 H 6.451493 -1.088667 -2.138100
 H 5.807203 -1.937820 -0.704939