15
charge = 0
 C -0.070743 0.355222 0.099796
 C 1.282691 -0.271919 0.141302
 C 2.379751 0.415104 0.446290
 O 3.653326 -0.037417 0.516619
 C 3.861246 -1.393998 0.236631
 C 5.333327 -1.681974 0.371174
 O 5.804161 -2.767745 0.187740
 H -0.523871 0.261879 -0.891990
 H -0.025088 1.417944 0.347158
 H -0.754655 -0.123737 0.807286
 H 1.345078 -1.330086 -0.090418
 H 2.346302 1.473823 0.682055
 H 3.539050 -1.650379 -0.782221
 H 3.306475 -2.039667 0.931610
 H 5.953251 -0.805858 0.655258