15
charge = 0
 C 0.204788 0.295055 -0.571707
 C 1.659212 0.597122 -0.596905
 C 2.318572 1.241318 -1.544517
 O 2.357594 0.238092 0.558028
 C 2.534530 -1.077301 0.821011
 C 3.244372 -1.256630 2.126923
 O 2.172838 -1.957116 0.093603
 H -0.280110 0.695828 -1.461131
 H -0.258739 0.742574 0.312467
 H 0.037150 -0.782847 -0.531692
 H 1.799560 1.597495 -2.423931
 H 3.381327 1.426044 -1.459219
 H 2.648152 -0.827061 2.934326
 H 4.197401 -0.725077 2.108854
 H 3.408653 -2.315785 2.307489