15
charge = 0
 C 0.873922 -0.016369 -0.148585
 C 2.343487 -0.122056 0.113544
 C 2.741129 -1.205037 1.039504
 O 1.926374 -1.910223 1.588084
 C 3.225737 0.694563 -0.482140
 C 4.713890 0.815151 -0.368853
 O 5.332707 0.265261 0.766976
 H 0.331837 0.183097 0.779006
 H 0.482345 -0.962234 -0.530231
 H 0.654616 0.776458 -0.864254
 H 3.821414 -1.360172 1.188005
 H 2.815091 1.413477 -1.191551
 H 4.966708 1.880610 -0.471498
 H 5.172981 0.319555 -1.232823
 H 5.016953 0.737908 1.542413