13
charge = 0
 C 1.013201 0.084465 -0.111461
 C 2.488217 0.125705 0.083964
 C 2.961352 0.961728 1.225418
 O 2.178613 1.553867 1.926756
 C 3.333806 -0.547844 -0.718080
 C 4.807269 -0.615297 -0.665290
 O 5.537015 -0.067358 0.123032
 H 0.624688 1.094834 -0.263239
 H 0.523593 -0.288674 0.791801
 H 0.737150 -0.541740 -0.959063
 H 4.046910 1.007442 1.389415
 H 2.904003 -1.133921 -1.527678
 H 5.239182 -1.255117 -1.462774