17
charge = 0
 C 0.613086 0.475089 0.511007
 C 1.957374 -0.229652 0.554559
 C 2.248340 -0.816602 1.917082
 O 2.023346 -1.305655 -0.369931
 C 2.074852 -0.931065 -1.712234
 C 2.418333 -2.143984 -2.538751
 O 2.470984 -2.132732 -3.735835
 H 0.584616 1.276384 1.252619
 H -0.190043 -0.231223 0.735991
 H 0.415780 0.924394 -0.464410
 H 2.748677 0.492271 0.294978
 H 1.481800 -1.547900 2.184405
 H 2.257581 -0.033119 2.677276
 H 3.217493 -1.317722 1.920559
 H 2.848473 -0.167325 -1.894844
 H 1.124670 -0.523637 -2.085372
 H 2.627039 -3.059013 -1.944889