19
charge = 0
 C 1.241449 -0.669051 -0.445068
 C 2.484769 0.173812 -0.186215
 C 2.447820 1.407975 -1.084837
 O 3.661135 2.107198 -1.177013
 C 2.588833 0.474888 1.311813
 C 3.879458 1.071848 1.832135
 O 3.932167 2.464898 1.532727
 H 1.168207 -0.955010 -1.497030
 H 0.332537 -0.115274 -0.188100
 H 1.248144 -1.584534 0.151586
 H 3.369153 -0.406480 -0.481301
 H 1.629192 2.067392 -0.752410
 H 2.203583 1.087221 -2.101943
 H 3.851107 2.465065 -0.296228
 H 2.447433 -0.468890 1.850756
 H 1.760246 1.125931 1.617810
 H 4.740861 0.553931 1.390770
 H 3.921973 0.937146 2.919388
 H 4.744453 2.828135 1.894170