17
charge = 0
 C 1.038081 0.010934 -0.044501
 C 2.529554 -0.077131 -0.134091
 C 3.078636 0.023574 -1.529675
 O 2.722813 -1.096624 -2.323880
 C 3.283856 -0.266633 0.952879
 C 4.769878 -0.372063 1.041278
 O 5.322629 0.644470 1.861171
 H 0.690456 0.995240 -0.376516
 H 0.682215 -0.155342 0.972876
 H 0.571033 -0.724146 -0.705601
 H 4.163033 0.172016 -1.529064
 H 2.632005 0.885192 -2.034837
 H 3.065670 -1.882415 -1.889188
 H 2.780245 -0.329836 1.916630
 H 5.240725 -0.375748 0.051745
 H 5.044153 -1.311468 1.530605
 H 5.004818 1.489472 1.531491