19
charge = 0
 C 1.029320 -0.109669 0.319348
 C 2.529224 0.031123 0.127560
 C 2.980212 -0.162723 -1.311241
 O 2.349648 0.783590 -2.178784
 C 4.494081 -0.128448 -1.462969
 C 4.977802 -0.427255 -2.873294
 O 4.631250 0.566381 -3.808008
 H 0.745900 0.069047 1.358620
 H 0.693717 -1.114986 0.050672
 H 0.483121 0.597057 -0.307841
 H 3.057946 -0.693910 0.755081
 H 2.863935 1.021381 0.465429
 H 2.612898 -1.132123 -1.669792
 H 2.557019 1.665021 -1.850351
 H 4.928437 -0.866447 -0.778994
 H 4.871440 0.854161 -1.151630
 H 4.592376 -1.411555 -3.184805
 H 6.068833 -0.494785 -2.881993
 H 3.687230 0.731650 -3.689219