17
charge = 0
 C 1.102074 -0.308375 0.175957
 C 2.604105 -0.088304 0.144125
 C 3.070462 0.706319 -1.066269
 O 2.467983 1.987290 -1.126000
 C 4.594594 0.815780 -1.117484
 C 5.091259 1.459788 -2.380090
 O 6.007467 1.038341 -3.033421
 H 0.802646 -0.847997 1.076656
 H 0.774518 -0.893561 -0.687425
 H 0.564184 0.640900 0.153049
 H 3.126271 -1.050622 0.151591
 H 2.930106 0.440015 1.050857
 H 2.720525 0.199526 -1.973235
 H 2.651565 2.443858 -0.298720
 H 5.072709 -0.160887 -1.014728
 H 4.925322 1.438155 -0.273293
 H 4.545719 2.374495 -2.689659