17
charge = 0
 C 2.851480 -0.922214 1.184502
 C 2.688790 0.062972 0.040821
 C 3.106494 -0.496048 -1.315297
 O 2.693779 0.414365 -2.302894
 C 2.796285 -0.101447 -3.607355
 C 4.612895 -0.652349 -1.346016
 O 5.208239 -1.653746 -1.062337
 H 2.548668 -0.464326 2.127962
 H 3.885333 -1.256831 1.291017
 H 2.233851 -1.810594 1.031267
 H 3.258502 0.978923 0.233007
 H 1.643686 0.368518 -0.061553
 H 2.648927 -1.484562 -1.470898
 H 2.442700 0.671592 -4.289141
 H 2.175897 -0.999015 -3.729457
 H 3.830394 -0.358478 -3.872927
 H 5.146190 0.284231 -1.629491