17
charge = 0
 C 0.232405 -0.309828 -0.131203
 C 1.648040 0.027257 -0.568632
 C 2.629994 -0.120681 0.573042
 O 3.955114 0.262181 0.188392
 C 4.715770 -0.687112 -0.376537
 C 6.066237 -0.145453 -0.735621
 O 4.351375 -1.817474 -0.560840
 H -0.471629 -0.192133 -0.956906
 H -0.099982 0.341283 0.682284
 H 0.161377 -1.342757 0.219371
 H 1.694536 1.053978 -0.944889
 H 1.956624 -0.631525 -1.384721
 H 2.647266 -1.149846 0.937992
 H 2.373507 0.547889 1.397400
 H 6.558128 0.249983 0.154915
 H 5.958173 0.680886 -1.440768
 H 6.669185 -0.934949 -1.176868