19
charge = 0
 C 0.410338 1.389471 -1.653642
 C 1.112927 0.259475 -0.920468
 C 2.350969 0.736112 -0.198726
 O 2.959225 -0.364730 0.448302
 C 4.145064 -0.045932 1.101845
 O 3.974205 0.754605 2.228680
 C 3.319409 0.094714 3.286873
 H -0.481684 1.029685 -2.169906
 H 1.064055 1.845349 -2.402374
 H 0.097722 2.178517 -0.964115
 H 1.397211 -0.531065 -1.621637
 H 0.436771 -0.198049 -0.191742
 H 2.094679 1.513166 0.532571
 H 3.062709 1.180843 -0.911902
 H 4.815661 0.518808 0.441794
 H 4.598499 -1.007814 1.374169
 H 3.272426 0.793250 4.121969
 H 3.877768 -0.798067 3.598880
 H 2.304137 -0.207240 3.010709