17
charge = 0
 C 0.588508 -0.586152 -1.614063
 C 1.698876 -0.036068 -0.744496
 C 2.477183 -1.101878 -0.019737
 O 2.225013 -2.277597 -0.111741
 C 3.681953 -0.656121 0.801178
 O 3.650780 0.671524 1.243087
 C 2.901446 0.840442 2.419334
 H 0.055516 0.223100 -2.116429
 H -0.128469 -1.154641 -1.019804
 H 0.983669 -1.262621 -2.373399
 H 1.316199 0.668391 0.002532
 H 2.419282 0.555621 -1.322655
 H 4.553961 -0.755911 0.144109
 H 3.811661 -1.366332 1.627705
 H 3.322034 0.252228 3.245295
 H 1.850740 0.547320 2.289229
 H 2.940149 1.897904 2.680445