19
charge = 0
 C 2.395043 -1.218263 -1.878658
 C 3.019312 0.102378 -1.462734
 C 4.053380 -0.066644 -0.366761
 O 5.138166 -0.761137 -0.910300
 C 6.055420 -1.223198 0.052352
 O 4.446643 1.136191 0.240714
 C 4.993300 2.106202 -0.624093
 H 1.642869 -1.068820 -2.655944
 H 1.903411 -1.706797 -1.032477
 H 3.152966 -1.900713 -2.266322
 H 2.253593 0.788676 -1.089523
 H 3.493335 0.578125 -2.325966
 H 3.627053 -0.644389 0.467306
 H 6.834234 -1.767806 -0.481385
 H 5.569756 -1.902077 0.765577
 H 6.508127 -0.397548 0.610100
 H 5.449712 2.867249 0.009208
 H 4.224672 2.583884 -1.242271
 H 5.760917 1.679587 -1.277534