19
charge = 0
 C 1.237082 0.202231 0.836866
 C 2.431548 -0.104084 -0.047924
 O 2.080692 -1.051757 -1.048422
 C 3.115146 1.091445 -0.687932
 C 4.447013 0.752404 -1.309476
 C 2.269356 2.109148 -1.403763
 C 2.959802 2.468205 -0.120551
 H 0.798283 -0.739252 1.170178
 H 0.463112 0.759078 0.300584
 H 1.523680 0.775858 1.720466
 H 3.179893 -0.624211 0.561211
 H 1.555766 -0.587948 -1.708461
 H 4.344334 -0.064862 -2.026614
 H 5.164298 0.439919 -0.544300
 H 4.868497 1.615264 -1.830286
 H 1.189760 2.014826 -1.375915
 H 2.655422 2.519451 -2.329168
 H 2.340336 2.614343 0.754792
 H 3.820186 3.125252 -0.171774