17
charge = 0
 C 2.984171 -1.395889 -0.342283
 C 2.511136 -0.026358 0.112246
 O 1.105417 0.018484 0.238440
 C 3.168139 0.384598 1.415516
 C 2.709023 1.685366 2.080614
 C 2.374969 0.790486 3.273054
 O 2.660539 -0.399729 2.517490
 H 2.460929 -1.688484 -1.253693
 H 2.781512 -2.143793 0.429266
 H 4.058988 -1.396644 -0.541726
 H 2.768383 0.724420 -0.644063
 H 0.892612 -0.517912 1.011558
 H 4.258086 0.282998 1.335555
 H 1.835719 2.120397 1.596414
 H 3.472477 2.445430 2.237874
 H 1.342106 0.807026 3.631642
 H 3.054193 0.888104 4.126506