15
charge = 0
 C 1.426817 1.005507 0.367592
 C 2.750032 0.298625 0.296721
 O 3.332206 -0.078959 1.283777
 C 3.336429 0.073264 -1.076723
 C 4.817803 0.451389 -1.259370
 O 5.155948 -0.859324 -1.721142
 C 3.855810 -1.345027 -1.375582
 H 1.105348 1.111357 1.401943
 H 0.676570 0.448269 -0.202135
 H 1.505881 1.990853 -0.102302
 H 2.692457 0.469007 -1.862124
 H 5.318799 0.690316 -0.315976
 H 5.028670 1.219865 -2.007684
 H 3.885375 -1.986364 -0.489097
 H 3.375666 -1.867068 -2.207399