17
charge = 0
 C 1.409484 -0.719937 0.601894
 C 2.543688 0.043482 -0.058638
 O 2.184856 0.503955 -1.343075
 C 3.044634 1.145726 0.848296
 O 4.097350 1.961434 0.368664
 C 2.833959 2.570628 0.598580
 C 2.760817 3.579682 1.701225
 H 1.074266 -1.529164 -0.048458
 H 0.558865 -0.057876 0.797330
 H 1.720639 -1.151074 1.556202
 H 3.384658 -0.637282 -0.232377
 H 1.325946 0.931186 -1.279079
 H 3.168760 0.836318 1.888054
 H 2.325491 2.841138 -0.325938
 H 3.292538 3.225813 2.586189
 H 1.720713 3.777928 1.973963
 H 3.210936 4.524322 1.385958