17
charge = 0
 C 1.029995 -0.451599 0.907815
 C 2.277343 -0.146818 0.108537
 O 3.211340 0.609955 0.878188
 C 3.004017 -1.334234 -0.479188
 O 4.105438 -0.932946 -1.235221
 C 3.134829 -2.630375 0.273186
 C 2.318145 -2.543561 -0.992938
 H 0.602867 0.481061 1.278995
 H 1.251431 -1.087990 1.769720
 H 0.274554 -0.952682 0.299885
 H 2.021747 0.515290 -0.725184
 H 3.415942 0.098068 1.667933
 H 4.556817 -0.262693 -0.707602
 H 2.606811 -2.769449 1.209113
 H 4.096645 -3.122657 0.208455
 H 1.240927 -2.616246 -0.914128
 H 2.742241 -2.979933 -1.888474