19
charge = 0
 C 1.205150 -0.320706 1.002836
 C 2.581819 -0.236124 0.393871
 O 3.234053 -1.468355 0.566956
 C 4.529104 -1.479229 0.021806
 C 5.137739 -2.832287 0.193826
 C 6.629143 -2.955195 0.262225
 C 5.799587 -3.187156 1.487635
 H 0.675959 0.626835 0.879765
 H 1.269897 -0.544863 2.069284
 H 0.620833 -1.108038 0.522729
 H 3.165194 0.568498 0.869462
 H 2.515444 0.007094 -0.678641
 H 5.159012 -0.723073 0.519705
 H 4.487003 -1.211364 -1.046559
 H 4.606701 -3.630576 -0.313922
 H 7.213882 -2.043940 0.211268
 H 7.093186 -3.808467 -0.215868
 H 5.815740 -2.430022 2.262580
 H 5.696353 -4.200712 1.853651