17
charge = 0
 C 1.999647 0.027130 -0.313228
 C 2.029484 1.337321 -0.082289
 O 3.058438 2.083896 0.351106
 C 4.273552 1.404910 0.613196
 C 5.285806 2.389535 1.094309
 C 6.737187 2.103605 0.855726
 C 6.055416 3.202910 0.101918
 H 1.077933 -0.415232 -0.664463
 H 2.848283 -0.627237 -0.169509
 H 1.155248 1.960908 -0.239061
 H 4.624748 0.913596 -0.304584
 H 4.094607 0.623530 1.363507
 H 5.033094 2.875593 2.030607
 H 6.992274 1.200276 0.313870
 H 7.441984 2.370174 1.632781
 H 5.841397 3.041806 -0.947923
 H 6.294611 4.226890 0.358627