17
charge = 0
 C 1.056742 -0.177105 0.550261
 C 2.524172 -0.404852 0.295494
 O 3.058587 -1.454222 0.552379
 C 3.280540 0.757242 -0.314188
 C 4.771026 0.606339 -0.281991
 C 5.644850 1.806292 -0.475736
 C 5.552457 1.152623 0.871008
 H 0.562220 -1.122365 0.767062
 H 0.578970 0.315474 -0.300310
 H 0.943335 0.490604 1.410297
 H 2.967878 1.683899 0.182110
 H 2.918032 0.851429 -1.348194
 H 5.130827 -0.329238 -0.693686
 H 5.162720 2.768774 -0.604229
 H 6.560697 1.689306 -1.041491
 H 5.006841 1.674628 1.648924
 H 6.402095 0.584881 1.228001