17
charge = 0
 C 2.280583 1.381929 -2.923215
 C 2.870061 1.784663 -1.595898
 O 3.953765 2.653706 -1.822927
 C 4.568729 3.076626 -0.637156
 C 5.753382 3.922643 -0.991638
 C 5.667529 5.376711 -1.021141
 O 6.280945 4.702058 0.067057
 H 1.437434 0.704274 -2.772895
 H 3.026786 0.874089 -3.537191
 H 1.926211 2.258457 -3.468907
 H 3.213022 0.899088 -1.038766
 H 2.113750 2.285936 -0.972329
 H 4.899358 2.210303 -0.042207
 H 3.877662 3.661420 -0.011278
 H 6.500356 3.437002 -1.617569
 H 4.717739 5.855506 -0.794647
 H 6.343679 5.943580 -1.655685