17
charge = 0
 C 1.057527 -0.269235 0.079942
 C 2.572765 -0.204620 0.101171
 O 3.134599 -1.437934 0.517315
 C 3.141164 0.248277 -1.237982
 C 4.628184 0.437211 -1.215012
 C 5.557175 -0.577181 -1.692087
 O 5.271615 0.572047 -2.474340
 H 0.679747 -0.606715 1.046487
 H 0.712076 -0.969774 -0.688055
 H 0.621306 0.707555 -0.141867
 H 2.886033 0.506571 0.873824
 H 2.829790 -2.122294 -0.086085
 H 2.669260 1.195462 -1.523395
 H 2.881074 -0.478307 -2.017470
 H 4.995476 1.133000 -0.459704
 H 5.163782 -1.513393 -2.081629
 H 6.563416 -0.626790 -1.283913