15
charge = 0
 C 1.106402 -1.980526 -1.077735
 C 2.283922 -1.515856 -0.693572
 O 3.443254 -1.949230 -1.249743
 C 4.604576 -1.423074 -0.800168
 C 5.783771 -1.798510 -1.296979
 C 7.030417 -1.245646 -0.826892
 C 8.235216 -1.584928 -1.288089
 H 0.209244 -1.606172 -0.606462
 H 1.017725 -2.728688 -1.854680
 H 2.397821 -0.764648 0.084346
 H 4.512352 -0.678657 -0.011977
 H 5.807694 -2.546981 -2.083432
 H 6.960930 -0.498744 -0.038073
 H 8.352573 -2.324435 -2.073368
 H 9.137592 -1.134207 -0.894876