15
charge = 0
 C 2.700927 -0.702074 0.798236
 C 2.223333 0.037491 -0.197705
 O 2.904196 0.850106 -1.027598
 C 4.297338 0.938660 -0.827149
 C 4.842750 1.902773 -1.866624
 C 6.280423 2.065616 -1.745952
 C 7.468677 2.184296 -1.627122
 H 2.011178 -1.304324 1.372678
 H 3.746970 -0.737384 1.070151
 H 1.167480 0.051216 -0.445912
 H 4.759015 -0.049307 -0.938542
 H 4.511490 1.301751 0.184740
 H 4.346934 2.871656 -1.752689
 H 4.592018 1.533099 -2.865635
 H 8.522572 2.295524 -1.528897