15
charge = 0
 C 3.111320 0.865053 0.809495
 C 2.376354 -0.140259 -0.034679
 O 1.169133 -0.155825 -0.076578
 C 3.195860 -1.130309 -0.822364
 C 2.545928 -1.957265 -1.644298
 C 4.656977 -1.144048 -0.677927
 C 5.399039 -2.245634 -0.622667
 H 2.391262 1.459465 1.367946
 H 3.713404 1.524795 0.177302
 H 3.800567 0.365361 1.495318
 H 1.464303 -1.920178 -1.697997
 H 3.077324 -2.658826 -2.276003
 H 5.153852 -0.179834 -0.603422
 H 4.949307 -3.232771 -0.643395
 H 6.478268 -2.193594 -0.542813