19
charge = 0
 C 3.063544 -1.116869 0.975331
 C 2.569121 0.052277 0.158343
 O 1.606056 0.682717 0.519830
 C 3.317052 0.404623 -1.131330
 C 2.942034 -0.648909 -2.182054
 C 2.881118 1.781162 -1.614526
 C 4.828823 0.383489 -0.900032
 H 2.271376 -1.442936 1.647159
 H 3.917627 -0.793077 1.577996
 H 3.403340 -1.950240 0.358469
 H 1.864132 -0.659346 -2.359947
 H 3.251303 -1.654168 -1.887133
 H 3.438016 -0.414103 -3.127606
 H 1.803682 1.818043 -1.776750
 H 3.386089 2.023016 -2.553293
 H 3.127908 2.552510 -0.882037
 H 5.187288 -0.603487 -0.600080
 H 5.124781 1.102808 -0.131697
 H 5.345099 0.655101 -1.824434