17
charge = 0
 C 0.878582 -0.368261 -0.128463
 C 2.364730 -0.031415 -0.103232
 O 3.134447 -1.224340 -0.193112
 C 2.792754 0.892205 -1.219495
 C 2.007116 1.494583 -2.100948
 C 2.708252 0.635646 1.202099
 C 3.629752 0.213563 2.053404
 H 0.599214 -0.818454 -1.084917
 H 0.261279 0.519217 0.025173
 H 0.664654 -1.080271 0.669296
 H 3.006063 -1.583775 -1.075300
 H 3.869691 1.040055 -1.259573
 H 0.928887 1.379742 -2.090331
 H 2.421070 2.136662 -2.869914
 H 2.131841 1.533057 1.410737
 H 4.210309 -0.678043 1.851418
 H 3.821269 0.747810 2.976657