17
charge = 0
 C 3.850267 0.437390 -0.968933
 C 2.724021 -0.051830 -0.080621
 O 2.034831 -1.146947 -0.674833
 C 3.123368 -0.409613 1.317428
 C 4.338372 -0.292456 1.858401
 C 4.654449 -0.675407 3.219030
 C 5.862388 -0.555493 3.769146
 H 3.459446 0.642094 -1.966384
 H 4.637874 -0.316561 -1.057805
 H 4.297563 1.354520 -0.578839
 H 1.960869 0.734245 -0.022109
 H 2.624103 -1.907234 -0.650551
 H 2.314316 -0.820941 1.919004
 H 5.156993 0.116833 1.270588
 H 3.836964 -1.084072 3.809358
 H 6.699613 -0.150893 3.209237
 H 6.052883 -0.855824 4.792083