15
charge = 0
 C 0.917900 0.124765 -0.050261
 C 2.421001 0.022871 0.145346
 O 3.120266 0.740650 -0.861574
 C 2.832869 0.479541 1.508775
 C 3.447254 -0.295542 2.403634
 C 3.832313 0.129516 3.699260
 C 4.171176 0.460376 4.805599
 H 0.650370 -0.196851 -1.058654
 H 0.580390 1.157897 0.083970
 H 0.384028 -0.496059 0.672271
 H 2.734518 -1.016796 0.012628
 H 2.811582 1.651773 -0.853602
 H 2.605761 1.513264 1.765277
 H 3.678761 -1.327259 2.146298
 H 4.469219 0.761366 5.781844