17
charge = 0
 C 0.956308 0.009268 0.044263
 C 2.457355 -0.080301 -0.130387
 O 2.926763 -1.396657 0.139327
 C 2.987383 0.378531 -1.474657
 C 2.198380 0.670268 -2.508615
 C 4.453624 0.427713 -1.560923
 C 5.152087 1.293696 -2.288675
 H 0.691270 -0.341964 1.042436
 H 0.433013 -0.616512 -0.684589
 H 0.601018 1.035784 -0.068573
 H 2.934756 0.533133 0.642313
 H 2.592311 -1.970179 -0.557567
 H 1.118403 0.663967 -2.429405
 H 2.617772 0.922443 -3.475973
 H 4.979022 -0.292006 -0.938126
 H 4.667475 2.061199 -2.883315
 H 6.235340 1.270607 -2.301014