19
charge = 0
 C 0.972580 0.368877 0.338177
 C 2.481317 0.229192 0.406847
 O 2.873688 -0.512819 1.551275
 C 3.060123 -0.364672 -0.870027
 C 4.584669 -0.413098 -0.877745
 C 5.133553 -1.102811 -2.080946
 C 5.937954 -0.553754 -2.980654
 H 0.585908 0.788141 1.268687
 H 0.501757 -0.607633 0.179650
 H 0.672545 1.018940 -0.487195
 H 2.924217 1.219047 0.564830
 H 2.444369 -1.372709 1.507074
 H 2.706311 0.215624 -1.728942
 H 2.654990 -1.378124 -0.998914
 H 4.914660 -0.932613 0.028919
 H 4.986350 0.604143 -0.821526
 H 4.828181 -2.140256 -2.215307
 H 6.267847 0.476942 -2.889610
 H 6.300462 -1.112014 -3.836093