17
charge = 0
 C 0.734876 1.265907 -1.509472
 C 2.121458 1.817947 -1.710227
 O 3.035807 0.977582 -1.026970
 C 4.333915 1.302357 -1.084847
 C 4.904652 2.338385 -1.715215
 C 6.333375 2.547685 -1.678582
 C 6.979457 3.549926 -2.276666
 H 0.005437 1.893558 -2.025598
 H 0.477898 1.240068 -0.449058
 H 0.659966 0.252406 -1.907451
 H 2.203622 2.838011 -1.314724
 H 2.385863 1.849377 -2.774561
 H 4.931779 0.588156 -0.526528
 H 4.306689 3.051212 -2.272615
 H 6.910039 1.817988 -1.112412
 H 6.450239 4.302460 -2.852378
 H 8.055529 3.647775 -2.208585