17
charge = 0
 C 0.961355 0.109473 -0.746812
 C 2.426208 0.018032 -0.406966
 O 3.168458 0.292572 -1.577958
 C 4.514079 0.262324 -1.490520
 C 5.214335 -0.007873 -0.379876
 C 5.176333 0.560300 -2.757141
 C 4.550568 0.836931 -3.896935
 H 0.359149 -0.098208 0.140196
 H 0.696750 -0.614507 -1.519637
 H 0.708816 1.108016 -1.108140
 H 2.682983 -0.983026 -0.037796
 H 2.695049 0.740667 0.373968
 H 4.759286 -0.232440 0.573384
 H 6.293961 -0.003245 -0.430678
 H 6.260685 0.543367 -2.717833
 H 3.469259 0.858111 -3.954107
 H 5.108034 1.049005 -4.800940