17
charge = 0
 C 0.747319 1.758700 -0.502942
 C 2.220055 2.019560 -0.317052
 O 2.939911 0.976244 -0.938215
 C 4.337900 1.085783 -0.808491
 C 4.947550 -0.204554 -1.323962
 C 4.872003 2.252430 -1.522300
 C 5.317788 3.200050 -2.109504
 H 0.161375 2.548158 -0.027211
 H 0.463950 0.802344 -0.059110
 H 0.493756 1.733108 -1.564367
 H 2.476133 2.058100 0.753079
 H 2.502463 2.984986 -0.757421
 H 4.594134 1.205875 0.257190
 H 4.692934 -0.341483 -2.375616
 H 4.554076 -1.045924 -0.751883
 H 6.033383 -0.178865 -1.225460
 H 5.711170 4.039179 -2.633234