17
charge = 0
 C 0.937469 -0.021552 -0.122979
 C 2.433162 -0.000408 0.061551
 O 2.947635 -1.265654 -0.277651
 C 4.344925 -1.321906 -0.129399
 C 4.844469 -2.638066 -0.487035
 C 5.281056 -3.719024 -0.777627
 C 5.794111 -5.028226 -1.131500
 H 0.509996 0.950260 0.133429
 H 0.482841 -0.779807 0.517129
 H 0.682245 -0.249754 -1.159399
 H 2.691530 0.243034 1.104292
 H 2.891067 0.774074 -0.573918
 H 4.627091 -1.091560 0.910636
 H 4.826179 -0.560797 -0.764580
 H 4.980063 -5.688537 -1.440918
 H 6.301231 -5.495914 -0.283945
 H 6.505531 -4.963164 -1.958485