13
charge = 0
 C 1.061537 0.034862 -0.086138
 C 2.560161 0.059121 0.001778
 O 3.164592 0.614999 0.887577
 C 3.260206 -0.637976 -1.059715
 C 3.832060 -1.228831 -1.941869
 C 4.577938 -1.893405 -3.000259
 O 5.936076 -2.101336 -2.696325
 H 0.637335 0.591471 0.747834
 H 0.705765 -0.998747 -0.069507
 H 0.736691 0.469639 -1.035063
 H 4.452062 -1.311363 -3.925105
 H 4.147140 -2.880912 -3.186786
 H 6.306115 -1.273822 -2.376003