15
charge = 0
 C 0.968785 0.538998 0.032166
 C 2.392604 0.024352 0.076105
 O 3.182009 0.730995 1.020660
 C 2.527611 -1.447194 0.319890
 C 1.549781 -2.351428 0.379733
 C 1.855444 -3.759300 0.643131
 O 1.030170 -4.634838 0.708431
 H 0.978785 1.617447 -0.128916
 H 0.447907 0.334449 0.972067
 H 0.401958 0.075251 -0.777900
 H 2.874965 0.237541 -0.886290
 H 2.807814 0.578708 1.894048
 H 3.554193 -1.777649 0.477104
 H 0.503818 -2.099318 0.237109
 H 2.936164 -3.979614 0.786273