15
charge = 0
 C 1.034372 -0.201142 0.372638
 C 2.377989 0.102033 -0.244503
 O 2.966132 -1.129753 -0.611145
 C 2.321962 1.031183 -1.435708
 C 1.241406 1.657529 -1.900167
 C 3.590632 1.278249 -2.142953
 O 4.644924 0.761725 -1.855106
 H 1.174598 -0.886109 1.209373
 H 0.376132 -0.683084 -0.353777
 H 0.552854 0.704427 0.746639
 H 3.007837 0.599811 0.510665
 H 3.852362 -0.925133 -0.935791
 H 0.261660 1.543904 -1.452993
 H 1.315339 2.314233 -2.762032
 H 3.525090 1.993627 -2.988622