19
charge = 0
 C 3.973154 -0.780635 -0.783079
 C 3.171549 0.171542 0.085949
 O 3.913439 0.541674 1.230263
 C 2.613006 1.400303 -0.659660
 C 1.863596 0.979139 -1.918227
 C 3.703077 2.409902 -0.992686
 O 1.692113 1.976504 0.259141
 H 4.354243 -1.591309 -0.159794
 H 4.830220 -0.278627 -1.244506
 H 3.372727 -1.221395 -1.579803
 H 2.295351 -0.352557 0.480862
 H 4.784661 0.830155 0.944727
 H 1.328027 1.839197 -2.331048
 H 1.126873 0.206271 -1.686453
 H 2.533949 0.606183 -2.694976
 H 4.476959 1.981720 -1.635079
 H 4.162251 2.787168 -0.077410
 H 3.275474 3.262741 -1.528328
 H 1.345351 2.783333 -0.131460