15
charge = 0
 C 0.870946 -0.022877 0.107175
 C 2.379467 0.060174 -0.083845
 O 3.032158 0.534212 1.081117
 C 2.926959 -1.219048 -0.535292
 C 3.359912 -2.282208 -0.898257
 C 3.888980 -3.575371 -1.313106
 O 2.952191 -4.628450 -1.228900
 H 0.494066 0.948392 0.431040
 H 0.623047 -0.768259 0.866889
 H 0.376209 -0.307847 -0.823233
 H 2.597879 0.813954 -0.847374
 H 3.010759 -0.167701 1.738349
 H 4.790203 -3.795256 -0.723715
 H 4.197274 -3.527306 -2.360675
 H 2.563551 -4.610709 -0.350273