15
charge = 0
 C 1.365041 0.675786 0.445074
 C 2.629095 0.226128 -0.235791
 O 3.518883 -0.268828 0.763307
 C 4.699483 -0.717516 0.366009
 C 5.199493 -0.777500 -0.879556
 C 6.533042 -1.316069 -1.065231
 O 7.095558 -1.424267 -2.129258
 H 0.663384 1.060612 -0.297548
 H 1.572328 1.468606 1.165679
 H 0.889466 -0.154446 0.969807
 H 3.116502 1.052816 -0.764358
 H 2.432942 -0.571846 -0.960445
 H 5.287916 -1.067034 1.210826
 H 4.662677 -0.445527 -1.758965
 H 7.035792 -1.640916 -0.126152