19
charge = 0
 C 1.209321 -0.531269 1.116962
 C 2.614500 -0.205006 0.677845
 O 3.448177 -1.299631 0.981430
 C 4.785723 -1.179423 0.525778
 C 5.621701 -0.278318 1.413371
 C 5.327459 -2.594932 0.488191
 O 4.551542 -3.432375 -0.329378
 H 0.540610 0.303639 0.896691
 H 1.177028 -0.724535 2.190901
 H 0.836722 -1.416566 0.597603
 H 2.967648 0.701657 1.187789
 H 2.646395 -0.004992 -0.403655
 H 4.771757 -0.788711 -0.503529
 H 5.633476 -0.658455 2.437694
 H 5.235244 0.742075 1.431289
 H 6.650831 -0.233532 1.048417
 H 5.378868 -2.979258 1.518176
 H 6.341041 -2.589682 0.080332
 H 3.637966 -3.289196 -0.058718