17
charge = 0
 C 2.400538 -1.600648 -4.589844
 C 3.680091 -1.820080 -3.825404
 O 3.536455 -1.243407 -2.546941
 C 4.595855 -1.340477 -1.704657
 C 5.765579 -1.929749 -1.966301
 O 6.823223 -2.024472 -1.120007
 C 6.666274 -1.446465 0.148536
 H 2.480006 -2.037256 -5.587675
 H 2.191843 -0.534479 -4.695459
 H 1.558495 -2.067132 -4.075275
 H 4.531811 -1.357758 -4.344104
 H 3.897533 -2.892672 -3.723012
 H 4.378181 -0.867052 -0.756821
 H 5.987962 -2.404291 -2.912122
 H 7.598194 -1.614084 0.686367
 H 5.839876 -1.912576 0.699613
 H 6.478275 -0.367993 0.074817