11
charge = 0
 C 0.983097 0.175234 0.363007
 C 2.313304 0.206022 0.297846
 O 3.209087 -0.593831 0.990683
 C 2.846461 -1.551406 1.860774
 O 1.743358 -1.869863 2.177875
 C 3.021918 1.115305 -0.538520
 C 3.615839 1.883522 -1.244993
 H 0.443601 -0.510600 0.993994
 H 0.440253 0.878774 -0.253331
 H 3.768663 -2.008971 2.245609
 H 4.139511 2.565814 -1.872345