11
charge = 0
 C 1.008009 -0.569368 0.032442
 C 2.112988 0.407120 -0.202466
 O 2.622615 0.629880 -1.267218
 C 2.604089 1.164205 1.049921
 O 2.109111 0.958519 2.130331
 C 3.670823 2.110336 0.834975
 C 4.559242 2.901114 0.667600
 H 0.737782 -1.047495 -0.906556
 H 0.144755 -0.058353 0.466003
 H 1.319137 -1.315035 0.768255
 H 5.347450 3.602986 0.520411