15
charge = 0
 C 2.928471 0.993018 1.073170
 C 2.705036 0.168166 -0.153710
 O 1.986112 0.519484 -1.059122
 C 3.415754 -1.182212 -0.267806
 O 3.080689 -1.782821 -1.479770
 C 4.902014 -1.028605 -0.138124
 C 5.614682 -1.467671 0.888089
 H 2.142722 1.740879 1.164809
 H 3.894864 1.498159 0.987586
 H 2.976793 0.370772 1.968685
 H 3.051277 -1.787409 0.579383
 H 2.456075 -1.170380 -1.903661
 H 5.383975 -0.531951 -0.977275
 H 5.149764 -1.991735 1.717640
 H 6.688493 -1.329794 0.933796