15
charge = 0
 C 2.894908 -1.506230 -0.209021
 C 2.314780 -0.126049 -0.224596
 O 1.133709 0.096691 -0.140483
 C 3.258856 1.054177 -0.352605
 O 4.596341 0.631595 -0.439486
 C 5.530115 1.597495 -0.554972
 C 5.344038 2.912312 -0.598708
 H 2.092650 -2.235030 -0.113860
 H 3.603681 -1.605854 0.617077
 H 3.467564 -1.682976 -1.123084
 H 3.108022 1.704696 0.518359
 H 2.968318 1.625044 -1.243820
 H 6.518384 1.154686 -0.612534
 H 4.372709 3.384165 -0.544011
 H 6.209035 3.553389 -0.694577