15
charge = 0
 C 1.037424 -0.152728 0.035459
 C 2.554769 -0.121489 0.020117
 O 3.010933 -1.256732 0.726529
 C 3.094241 -0.179126 -1.414145
 O 4.499715 -0.268477 -1.421447
 C 3.062372 1.113340 0.645672
 C 3.518315 2.121116 1.114816
 H 0.691196 -1.066526 -0.451087
 H 0.625176 0.713894 -0.483402
 H 0.678155 -0.148039 1.064642
 H 3.944256 -1.360181 0.501107
 H 2.735835 0.684164 -1.987297
 H 2.722101 -1.094255 -1.879717
 H 4.847210 0.564679 -1.083609
 H 3.902900 3.010269 1.556754