17
charge = 0
 C 3.670141 0.578202 1.325887
 C 2.895779 0.166730 0.092052
 O 2.890542 1.182753 -0.898748
 C 3.357006 -1.151744 -0.552522
 O 2.526215 -1.430289 -1.650380
 C 4.812973 -1.108766 -0.918879
 C 5.276871 -1.133266 -2.160426
 H 3.219813 1.468758 1.766864
 H 4.710637 0.811052 1.085213
 H 3.664824 -0.217102 2.076014
 H 1.841470 0.031169 0.350869
 H 3.801763 1.309855 -1.189518
 H 3.204693 -1.956857 0.177641
 H 2.320481 -0.576042 -2.051454
 H 5.510351 -1.050748 -0.086286
 H 4.602726 -1.228637 -3.003996
 H 6.340115 -1.093659 -2.366329