17
charge = 0
 C 2.428958 -1.552536 0.232513
 C 2.251122 -0.046707 0.153112
 O 2.746177 0.600364 1.307468
 C 2.867536 0.553536 -1.095324
 O 4.264753 0.335035 -1.031512
 C 5.013674 0.838141 -2.030190
 C 4.604342 1.510318 -3.101193
 H 1.972037 -1.929738 1.148389
 H 3.488759 -1.817304 0.238401
 H 1.959822 -2.050106 -0.620401
 H 1.182124 0.188910 0.124287
 H 3.706136 0.531950 1.279548
 H 2.667204 1.630621 -1.129001
 H 2.456332 0.087815 -1.999736
 H 6.062586 0.620134 -1.858883
 H 3.567914 1.743735 -3.301598
 H 5.343393 1.845921 -3.815079