17
charge = 0
 C 3.020851 1.613985 -0.276033
 C 2.553047 0.510629 0.641732
 O 3.152703 0.615135 1.939553
 C 4.357986 0.047464 2.092908
 O 4.939261 -0.537441 1.218131
 C 4.866273 0.241553 3.496105
 C 6.221097 -0.392951 3.730721
 H 2.495816 1.546746 -1.231974
 H 4.090980 1.528296 -0.468926
 H 2.815451 2.594770 0.157807
 H 2.783027 -0.470984 0.224064
 H 1.480535 0.578693 0.828701
 H 4.108947 -0.159563 4.177034
 H 4.886885 1.318932 3.689105
 H 6.186880 -1.468419 3.551342
 H 6.548584 -0.225416 4.758411
 H 6.971466 0.024371 3.057828