17
charge = 0
 C 0.905452 1.729492 -0.990833
 C 2.365586 1.744195 -1.360329
 O 3.106570 1.189580 -0.284435
 C 4.460597 1.077819 -0.531737
 O 5.118728 2.318769 -0.628240
 C 5.234509 3.004558 0.535489
 C 5.722031 4.234642 0.590570
 H 0.307568 2.148307 -1.803101
 H 0.730283 2.325481 -0.093198
 H 0.563717 0.710558 -0.799083
 H 2.708354 2.765413 -1.559919
 H 2.546539 1.148879 -2.267167
 H 4.658041 0.583535 -1.490021
 H 4.875498 0.491441 0.294585
 H 4.902627 2.470122 1.423167
 H 6.035674 4.760161 -0.302613
 H 5.816107 4.728930 1.546855