17
charge = 0
 C 2.272362 1.004346 -0.617433
 O 1.964823 -0.226332 -0.010780
 C 3.034528 -1.106246 -0.032874
 C 2.708421 -2.552218 0.011061
 C 3.264217 -1.933690 -1.259235
 C 4.604717 -2.303123 -1.756512
 C 5.755219 -1.731732 -1.423981
 H 1.378665 1.625963 -0.561580
 H 2.557496 0.873328 -1.668772
 H 3.093138 1.514189 -0.095431
 H 3.906892 -0.766012 0.523661
 H 1.658793 -2.817848 0.015832
 H 3.360752 -3.200239 0.583034
 H 2.510476 -1.800629 -2.030767
 H 4.622640 -3.137171 -2.456661
 H 5.804786 -0.891782 -0.739068
 H 6.694674 -2.086916 -1.830593