15
charge = 0
 C 1.625913 -0.267190 -0.069358
 O 2.861815 0.278831 -0.468874
 C 3.356699 1.192786 0.427809
 C 4.316327 2.180677 -0.063656
 C 2.920484 2.659110 0.289737
 C 2.724426 3.407172 1.534820
 O 3.462874 3.339429 2.487771
 H 1.336961 -0.995911 -0.825752
 H 0.852943 0.507879 0.001177
 H 1.709242 -0.770429 0.901665
 H 3.455660 0.848126 1.456760
 H 4.554203 2.154712 -1.119140
 H 5.103756 2.495876 0.609530
 H 2.244470 2.869011 -0.530136
 H 1.815937 4.044411 1.572549