17
charge = 0
 C 3.085196 0.142272 1.028630
 O 2.231186 0.192882 -0.086555
 C 2.822810 0.804302 -1.178409
 C 1.909745 1.412672 -2.188742
 C 2.749320 2.296923 -1.329833
 O 3.781528 2.978048 -1.951540
 C 4.810326 3.324824 -1.058910
 H 2.536354 -0.341028 1.837008
 H 3.388444 1.147266 1.349409
 H 3.989641 -0.442394 0.813892
 H 3.726595 0.321986 -1.552378
 H 0.847962 1.379519 -1.980614
 H 2.190381 1.322930 -3.230382
 H 2.242292 2.841463 -0.532514
 H 5.578191 3.843348 -1.633182
 H 5.250831 2.436699 -0.587671
 H 4.445507 3.993798 -0.268110