17
charge = 0
 C 1.580027 0.088099 1.016538
 O 1.727509 -0.520973 -0.249991
 C 2.893687 -1.251384 -0.372904
 C 2.978362 -2.593647 0.255007
 C 2.817589 -2.446665 -1.249815
 O 4.053534 -0.502081 -0.350401
 C 4.195247 0.343145 -1.474113
 H 0.632458 0.625835 0.999481
 H 2.393037 0.791276 1.220753
 H 1.555181 -0.662775 1.814785
 H 2.117524 -2.939281 0.813681
 H 3.941958 -2.914346 0.629100
 H 1.855658 -2.694699 -1.679345
 H 3.680095 -2.671320 -1.864667
 H 5.138015 0.875357 -1.351189
 H 3.375825 1.065280 -1.538626
 H 4.226394 -0.237931 -2.403085