17
charge = 0
 C 0.807058 0.083864 -0.067631
 O 2.192902 0.218262 -0.269104
 C 2.769070 1.106546 0.620840
 C 4.025331 1.804478 0.195867
 C 4.635492 1.559492 -1.154625
 C 2.734673 2.569357 0.332129
 O 2.526219 3.426116 1.408643
 H 0.437452 -0.620236 -0.813318
 H 0.290107 1.043920 -0.187187
 H 0.585560 -0.307244 0.933953
 H 2.688771 0.829092 1.672147
 H 4.727356 1.963828 1.009312
 H 5.290361 0.684800 -1.136859
 H 3.865398 1.373236 -1.903965
 H 5.229792 2.418681 -1.476962
 H 2.251373 2.854712 -0.602062
 H 3.098485 4.190896 1.301832