15
charge = 0
 C 3.054635 -1.297831 0.166904
 O 2.586804 0.028503 0.111596
 C 3.085772 0.821889 -0.851713
 C 2.746733 2.112170 -1.040152
 C 3.502606 2.612850 -2.177310
 C 4.291907 1.649230 -2.679280
 C 4.100743 0.403506 -1.875826
 H 2.539244 -1.771278 1.000980
 H 4.134618 -1.338019 0.345524
 H 2.823891 -1.846237 -0.752810
 H 2.037448 2.672393 -0.448131
 H 3.427193 3.625322 -2.553673
 H 4.964735 1.725788 -3.521018
 H 5.034051 0.064897 -1.408709
 H 3.739719 -0.432473 -2.487982