15
charge = 0
 C 2.846883 1.186729 -0.896585
 O 2.338789 -0.031646 -0.407747
 C 3.024101 -1.154238 -0.704586
 C 2.663933 -2.390559 -0.309705
 C 3.666049 -3.361336 -0.831402
 C 4.639080 -2.507667 -1.572969
 C 4.257297 -1.225117 -1.493619
 H 2.163400 1.963133 -0.555715
 H 2.882045 1.200823 -1.991363
 H 3.846925 1.396180 -0.501591
 H 1.798452 -2.644397 0.283767
 H 3.217664 -4.115326 -1.492482
 H 4.164213 -3.924011 -0.030273
 H 5.511045 -2.887169 -2.087777
 H 4.769325 -0.381408 -1.935463