19
charge = 0
 C 2.242859 -1.298251 0.212961
 O 2.260946 0.097735 0.086961
 C 2.814506 0.731820 1.201242
 C 2.816646 2.257860 1.127634
 C 2.424301 2.298883 2.623554
 C 3.586859 2.525646 3.569230
 C 1.984034 0.820563 2.499533
 H 1.811509 -1.706210 -0.701541
 H 1.632811 -1.622702 1.066663
 H 3.257132 -1.703308 0.339061
 H 3.818049 0.327224 1.399190
 H 2.001255 2.594802 0.484530
 H 3.741161 2.754035 0.826084
 H 1.617773 2.995245 2.863417
 H 4.417217 1.845910 3.356044
 H 3.285981 2.364109 4.608118
 H 3.967408 3.547512 3.486271
 H 0.919533 0.733867 2.269606
 H 2.233010 0.149770 3.324741