17
charge = 0
 C 2.399013 0.351464 -0.997381
 O 2.121845 -0.518685 0.064647
 C 3.237921 -1.275025 0.484703
 C 2.866970 -1.970140 1.784881
 C 2.189557 -3.227963 1.275217
 O 2.951944 -3.615042 0.145670
 C 3.530971 -2.461538 -0.441640
 H 1.485040 0.906538 -1.209883
 H 2.701921 -0.180991 -1.908629
 H 3.194384 1.062842 -0.733102
 H 4.108290 -0.613359 0.589284
 H 2.232171 -1.338889 2.406479
 H 3.772624 -2.227186 2.339829
 H 1.150186 -3.020615 0.988417
 H 2.199149 -4.055102 1.987587
 H 3.101354 -2.289241 -1.434999
 H 4.606568 -2.632388 -0.556481