17
charge = 0
 C 1.334277 0.421896 -0.503330
 O 1.606734 -0.382606 0.614935
 C 2.562285 0.137308 1.501005
 C 3.936133 0.288058 0.884991
 C 2.115760 1.334063 2.366971
 O 2.402190 0.606383 3.567262
 C 2.549701 -0.616684 2.832718
 H 0.474474 -0.017852 -1.008820
 H 2.173000 0.455753 -1.208437
 H 1.079495 1.450047 -0.212828
 H 3.949111 1.048035 0.100338
 H 4.264756 -0.662057 0.456512
 H 4.653061 0.590591 1.650946
 H 1.046433 1.556985 2.270572
 H 2.698776 2.257263 2.297841
 H 1.674223 -1.266707 2.933492
 H 3.457962 -1.159075 3.110051