15
charge = 0
 C 2.020329 -1.102051 0.631117
 O 2.125651 0.124880 -0.043285
 C 2.825380 1.084055 0.684713
 C 2.908567 2.440013 -0.034147
 C 2.473577 3.092108 1.269374
 O 2.507138 4.209340 1.686891
 C 2.091867 1.751085 1.881675
 H 1.471358 -1.784503 -0.017274
 H 1.476628 -0.998811 1.579455
 H 3.010470 -1.528321 0.842204
 H 3.813340 0.703881 0.978178
 H 2.122464 2.517965 -0.791501
 H 3.858677 2.757785 -0.463610
 H 1.010786 1.591109 1.817651
 H 2.430379 1.559567 2.900459