17
charge = 0
 C 2.691195 0.840486 -0.773227
 O 2.071437 0.022015 0.184394
 C 2.832692 -1.091765 0.523708
 C 2.157283 -2.031094 1.511847
 O 2.432095 -3.164053 0.677052
 C 2.831243 -2.314550 -0.416674
 C 4.108344 -2.769631 -1.063421
 H 2.043341 1.701993 -0.934212
 H 2.827748 0.319344 -1.729760
 H 3.672353 1.191297 -0.424815
 H 3.849998 -0.794795 0.817062
 H 1.083493 -1.831100 1.599526
 H 2.600393 -2.132455 2.505428
 H 2.019176 -2.232920 -1.153190
 H 4.921810 -2.799945 -0.334868
 H 4.389162 -2.094405 -1.876332
 H 3.987035 -3.771812 -1.481087