19
charge = 0
 C 1.523485 -0.139733 -0.630943
 O 2.918914 -0.057582 -0.577893
 C 3.471971 0.433043 -1.774416
 C 4.961271 0.446746 -1.671891
 C 5.743153 1.432956 -2.490514
 C 5.660538 1.588144 -1.002471
 C 6.866244 1.341189 -0.142804
 H 1.178027 -0.530594 0.326615
 H 1.186881 -0.813891 -1.431826
 H 1.064924 0.845875 -0.797510
 H 3.101939 1.452669 -1.973641
 H 3.149996 -0.197507 -2.619465
 H 5.410799 -0.532508 -1.536231
 H 5.190700 2.126361 -3.114400
 H 6.684423 1.103910 -2.914823
 H 5.005006 2.380910 -0.652940
 H 7.472568 0.527059 -0.549058
 H 6.576045 1.064155 0.874089
 H 7.502017 2.228988 -0.082587