19
charge = 0
 C 1.144167 1.161363 -2.260998
 O 2.538061 1.110386 -2.153990
 C 2.972394 0.968593 -0.825899
 C 4.472634 0.892047 -0.795083
 C 5.156030 0.630158 0.561875
 C 6.174723 -0.262811 -0.172567
 C 5.174907 -0.367755 -1.339710
 H 0.896197 1.273232 -3.317041
 H 0.726412 2.013768 -1.706003
 H 0.675183 0.241938 -1.881911
 H 2.541793 0.054762 -0.381955
 H 2.621979 1.819870 -0.217769
 H 4.888037 1.788585 -1.265527
 H 4.510310 0.038611 1.217863
 H 5.529106 1.488572 1.122984
 H 6.489964 -1.185376 0.317021
 H 7.065895 0.300817 -0.457382
 H 4.529695 -1.244956 -1.237737
 H 5.561906 -0.336812 -2.358480