17
charge = 0
 C 1.139889 -1.418976 0.102588
 O 2.294754 -1.787356 -0.597514
 C 3.222534 -0.740764 -0.687580
 C 4.422511 -1.194829 -1.469122
 C 5.065468 -2.475478 -1.025024
 C 5.198772 -0.175562 -2.171102
 O 4.315006 -1.024839 -2.880779
 H 0.480570 -2.286660 0.130339
 H 0.615494 -0.589828 -0.392507
 H 1.372035 -1.114977 1.133435
 H 3.539797 -0.426005 0.321105
 H 2.778027 0.131087 -1.189331
 H 4.348637 -3.295545 -1.086616
 H 5.402672 -2.398253 0.012017
 H 5.922954 -2.706771 -1.657816
 H 6.258473 -0.347601 -2.347371
 H 4.899607 0.869856 -2.119423