17
charge = 0
 C 1.082301 0.889181 -0.271057
 O 2.473894 0.990657 -0.394941
 C 2.984798 0.152346 -1.396057
 C 4.478461 0.267416 -1.396102
 O 5.127955 -0.270381 -2.536988
 C 5.189310 1.137812 -2.325877
 C 6.534599 1.713986 -2.021204
 H 0.773025 1.562444 0.528593
 H 0.774455 -0.134242 -0.014885
 H 0.571987 1.181247 -1.199491
 H 2.594719 0.427855 -2.387603
 H 2.695373 -0.894085 -1.207749
 H 4.958497 0.035733 -0.445580
 H 4.578379 1.704915 -3.028723
 H 7.065079 1.092280 -1.297959
 H 6.432105 2.720999 -1.608866
 H 7.140753 1.779316 -2.928132