17
charge = 0
 C 3.397358 -0.289754 -1.216382
 O 2.639545 -0.386702 -0.037156
 C 3.271492 -0.075882 1.114081
 C 4.534397 0.315148 1.280213
 C 5.100732 0.625113 2.603017
 C 6.538023 0.298686 2.905927
 C 6.116696 1.724983 2.752084
 H 2.737914 -0.572673 -2.035321
 H 4.258850 -0.967209 -1.190367
 H 3.756306 0.734099 -1.373444
 H 2.595489 -0.184810 1.956280
 H 5.198921 0.419568 0.427909
 H 4.408135 0.509818 3.430794
 H 7.123484 -0.146997 2.110576
 H 6.780832 -0.063554 3.897289
 H 6.415693 2.249076 1.852136
 H 6.068735 2.347191 3.637256