19
charge = 0
 C 3.319574 1.305507 1.325961
 O 2.921430 1.710760 0.045138
 C 3.166401 0.769445 -0.980668
 C 2.448637 1.286879 -2.209146
 C 4.636682 0.557703 -1.239666
 C 5.411709 -0.500945 -0.514144
 C 5.080861 -0.677176 -1.962056
 H 2.949511 2.054007 2.027874
 H 4.408833 1.237582 1.423669
 H 2.886250 0.330185 1.591803
 H 2.730533 -0.201886 -0.684655
 H 2.865347 2.251798 -2.507606
 H 1.386476 1.423570 -2.000004
 H 2.559506 0.589606 -3.041084
 H 5.171761 1.473150 -1.476334
 H 4.877106 -1.117549 0.199334
 H 6.438300 -0.289398 -0.241517
 H 4.322070 -1.408390 -2.217912
 H 5.877022 -0.588249 -2.690098