15
charge = 0
 C 1.794164 -0.550583 0.196960
 O 3.108451 -0.551850 -0.306605
 C 3.482319 -1.627964 -1.032038
 C 2.744265 -2.697386 -1.320540
 C 4.884381 -1.450036 -1.487872
 C 5.969638 -2.286339 -0.970895
 O 5.444356 -2.477149 -2.272795
 H 1.670472 0.386579 0.736911
 H 1.632905 -1.391383 0.879940
 H 1.062448 -0.605999 -0.616024
 H 1.728586 -2.824273 -0.975196
 H 3.182554 -3.471694 -1.933761
 H 5.125907 -0.436953 -1.805975
 H 5.726140 -3.067455 -0.255668
 H 6.981113 -1.889705 -0.929351