17
charge = 0
 C 1.744528 0.299527 1.572311
 O 3.043981 0.716638 1.253253
 C 3.173678 1.292952 -0.028581
 C 2.523681 2.661159 -0.136711
 C 4.652128 1.379186 -0.292738
 C 5.361193 0.339647 -1.024072
 O 5.023614 1.572597 -1.645832
 H 1.801982 -0.231820 2.522634
 H 1.344336 -0.383092 0.809443
 H 1.049146 1.139982 1.685807
 H 2.734352 0.620719 -0.783337
 H 2.918681 3.329163 0.632925
 H 1.439518 2.606252 -0.024721
 H 2.738049 3.091114 -1.117192
 H 5.208888 1.982231 0.424455
 H 4.809299 -0.526124 -1.382160
 H 6.422466 0.184580 -0.849082