15
charge = 0
 C 0.866724 -0.635407 -0.266319
 O 2.244577 -0.376139 -0.099344
 C 2.987722 -0.494487 -1.213194
 C 4.311891 -0.281555 -1.218434
 C 5.085749 0.105740 0.006416
 C 5.017287 -0.429096 -2.440608
 C 5.662578 -0.541230 -3.451935
 H 0.400929 -0.502562 0.708588
 H 0.696900 -1.661316 -0.609363
 H 0.416911 0.064407 -0.978318
 H 2.460314 -0.774206 -2.121669
 H 4.428690 0.183636 0.871507
 H 5.586006 1.066179 -0.142755
 H 5.862291 -0.633363 0.220050
 H 6.223010 -0.642892 -4.350404