19
charge = 0
 C 3.880186 -0.410998 -1.514138
 O 3.435092 0.144685 -0.301937
 C 3.966945 -0.366816 0.827387
 C 4.867692 -1.338895 0.950562
 C 5.375863 -1.812870 2.279044
 C 5.034523 -3.283956 2.505307
 C 6.880672 -1.585919 2.404938
 H 3.353924 0.114076 -2.309725
 H 3.649459 -1.481115 -1.566831
 H 4.960610 -0.275170 -1.638223
 H 3.552654 0.135036 1.696788
 H 5.274243 -1.832865 0.072093
 H 4.877137 -1.224527 3.059221
 H 5.498791 -3.910565 1.737194
 H 3.956074 -3.450054 2.464118
 H 5.399329 -3.627159 3.477469
 H 7.420991 -2.142558 1.632675
 H 7.249502 -1.925445 3.376872
 H 7.131614 -0.529276 2.291494