17
charge = 0
 C 4.429886 0.574439 -0.965381
 O 3.357494 0.047038 -0.220399
 C 3.383865 0.234338 1.109543
 C 4.317299 0.870281 1.828843
 C 4.259837 1.023804 3.274694
 C 3.095659 0.442833 4.018562
 C 5.232456 1.673537 3.924377
 H 4.233604 0.325570 -2.006754
 H 5.381919 0.129959 -0.655712
 H 4.490551 1.662429 -0.853934
 H 2.509589 -0.215130 1.566272
 H 5.178690 1.307616 1.336181
 H 3.030364 -0.639346 3.869698
 H 2.150437 0.873458 3.674101
 H 3.186105 0.633693 5.087837
 H 6.079334 2.097835 3.396169
 H 5.207321 1.798048 5.000422