15
charge = 0
 C 1.094943 0.472992 -0.267864
 O 2.482664 0.224388 -0.207473
 C 3.131470 0.830087 0.801013
 C 4.446809 0.675789 0.986032
 C 5.151609 1.303780 2.037220
 C 5.788163 1.822079 2.921433
 C 6.548400 2.447315 3.985728
 H 0.714429 -0.072987 -1.129412
 H 0.889380 1.540564 -0.400166
 H 0.589073 0.115829 0.635457
 H 2.531498 1.454440 1.459846
 H 4.999181 0.040678 0.299118
 H 6.381577 3.527779 4.010369
 H 7.619840 2.279617 3.848063
 H 6.271282 2.043742 4.963727