17
charge = 0
 C 3.532557 1.026087 -0.738563
 O 2.645640 0.158158 -0.075463
 C 3.190824 -0.909529 0.537796
 C 4.474973 -1.255378 0.607390
 C 4.935625 -2.489894 1.322629
 C 5.606605 -3.464441 0.403485
 C 6.861171 -3.876985 0.517708
 H 2.925398 1.818119 -1.173686
 H 4.076722 0.502906 -1.532783
 H 4.255741 1.461138 -0.039694
 H 2.417090 -1.507136 1.010891
 H 5.240529 -0.656018 0.126546
 H 4.070451 -2.971909 1.793555
 H 5.629204 -2.228210 2.130037
 H 4.996606 -3.829946 -0.420676
 H 7.500380 -3.526568 1.322827
 H 7.295005 -4.580004 -0.184008