19
charge = 0
 C 3.263537 -1.034037 -4.150737
 O 4.214179 -0.655590 -3.187279
 C 3.753468 -0.160868 -2.015971
 C 2.466427 -0.003330 -1.701564
 C 4.889812 0.195126 -1.097580
 C 5.716988 -1.036643 -0.737950
 C 5.766687 1.289509 -1.701090
 H 3.822449 -1.401478 -5.010095
 H 2.645556 -0.181695 -4.453926
 H 2.610578 -1.828374 -3.772596
 H 1.654375 -0.261364 -2.366479
 H 2.208441 0.402882 -0.733621
 H 4.431766 0.583579 -0.183047
 H 6.182985 -1.463705 -1.628400
 H 5.097626 -1.808174 -0.275101
 H 6.510452 -0.769041 -0.035764
 H 6.234552 0.945041 -2.625687
 H 6.560296 1.567750 -1.003216
 H 5.182906 2.184312 -1.928308