17
charge = 0
 C 1.689302 -0.854849 -0.207466
 O 3.048453 -0.501471 -0.267545
 C 3.501846 0.027672 -1.428821
 C 2.760287 0.228556 -2.522538
 C 4.931315 0.394753 -1.323806
 C 5.379543 0.984766 -0.022544
 C 5.762170 0.195585 -2.344434
 H 1.512310 -1.232056 0.798547
 H 1.449756 -1.636368 -0.936600
 H 1.047461 0.013528 -0.392700
 H 1.719938 -0.055531 -2.589859
 H 3.208406 0.706458 -3.380923
 H 4.794356 1.875283 0.225231
 H 6.433986 1.258912 -0.065192
 H 5.233545 0.274991 0.794776
 H 5.430615 -0.277630 -3.260619
 H 6.802322 0.495592 -2.283398