17
charge = 0
 C 1.550744 -0.119195 -0.117906
 O 2.866606 -0.272113 0.356143
 C 3.103116 -1.289829 1.213825
 C 2.191474 -2.148994 1.669373
 C 4.553791 -1.325883 1.593140
 C 5.454465 -1.617205 0.432289
 C 6.346790 -2.595953 0.403914
 H 1.562969 0.733222 -0.795204
 H 0.855263 0.077928 0.704979
 H 1.220104 -1.012608 -0.658253
 H 1.148531 -2.111129 1.388822
 H 2.497291 -2.929585 2.351198
 H 4.702091 -2.065003 2.381546
 H 4.811908 -0.341729 2.005810
 H 5.345695 -0.961769 -0.427874
 H 6.478153 -3.270218 1.244933
 H 6.980409 -2.759247 -0.460136