17
charge = 0
 C 3.375838 0.743278 -0.770543
 O 3.052307 -0.620919 -0.846473
 C 3.171818 -1.301662 0.390989
 C 2.533322 -2.642811 0.208848
 C 1.604694 -3.143848 1.007952
 C 4.612390 -1.449958 0.790970
 C 5.129269 -0.987555 1.919639
 H 3.231869 1.160942 -1.767130
 H 4.414751 0.906177 -0.460101
 H 2.716984 1.270317 -0.066316
 H 2.637442 -0.746322 1.177373
 H 2.894523 -3.212291 -0.644365
 H 1.229015 -2.586920 1.860670
 H 1.187748 -4.130464 0.843302
 H 5.239255 -1.978510 0.075389
 H 4.519620 -0.454413 2.643207
 H 6.174354 -1.130931 2.169181