15
charge = 0
 C 2.325249 0.990452 0.336419
 O 2.114862 0.426750 -0.934395
 C 2.680234 -0.856812 -1.082220
 C 2.245163 -1.395984 -2.412547
 C 1.595008 -2.537952 -2.562393
 C 4.146590 -0.827325 -0.996209
 C 5.345352 -0.806275 -0.935068
 H 1.818289 1.954916 0.342252
 H 3.391352 1.141985 0.541222
 H 1.899969 0.358423 1.128046
 H 2.307046 -1.522557 -0.287428
 H 2.508188 -0.778793 -3.266515
 H 1.331135 -3.157248 -1.710947
 H 1.305940 -2.898847 -3.542270
 H 6.408613 -0.789233 -0.884827