19
charge = 0
 C 3.255961 0.241878 1.479817
 O 2.821200 1.343661 0.729790
 C 3.143151 1.259320 -0.648599
 C 2.359438 2.357045 -1.339014
 C 4.617039 1.397484 -0.879892
 C 5.377655 0.488874 -1.477546
 C 6.838280 0.622044 -1.739540
 H 2.932717 0.404847 2.508428
 H 4.347117 0.132303 1.461043
 H 2.809495 -0.693319 1.112187
 H 2.818102 0.278624 -1.033304
 H 2.670516 3.334736 -0.963601
 H 1.292116 2.238454 -1.143187
 H 2.529517 2.328544 -2.416605
 H 5.060455 2.327530 -0.523701
 H 4.908127 -0.434527 -1.817167
 H 7.228375 1.568384 -1.360473
 H 7.052068 0.569377 -2.811923
 H 7.398162 -0.193040 -1.270115