17
charge = 0
 C 1.037546 2.785181 -0.256371
 O 2.409246 2.565342 -0.431618
 C 3.006738 1.991994 0.706037
 C 4.434506 1.697821 0.418821
 C 5.450112 2.068364 1.199646
 C 6.836322 1.742061 0.939174
 C 7.850869 2.104881 1.723344
 H 0.653345 3.218749 -1.179846
 H 0.841115 3.481522 0.571208
 H 0.500861 1.847553 -0.052285
 H 2.477162 1.058091 0.964870
 H 2.919184 2.664127 1.573444
 H 4.628045 1.126696 -0.486682
 H 5.246161 2.651972 2.096256
 H 7.036408 1.165206 0.038734
 H 7.685471 2.679543 2.629139
 H 8.874230 1.841018 1.486718