19
charge = 0
 C 2.154540 -0.610119 1.041475
 O 3.525116 -0.376263 1.194858
 C 3.910822 0.885315 0.698661
 C 5.396080 1.045074 0.805325
 C 6.193319 -0.004880 0.100450
 C 5.896736 2.083325 1.475444
 C 7.327706 2.454891 1.661492
 H 1.941474 -1.602533 1.439901
 H 1.854597 -0.579014 -0.016099
 H 1.553052 0.128748 1.590364
 H 3.399392 1.686502 1.251683
 H 3.602152 0.965624 -0.359053
 H 5.946418 -0.020901 -0.966966
 H 5.941706 -0.992863 0.494109
 H 7.267928 0.141241 0.197127
 H 5.182096 2.754334 1.949561
 H 8.015080 1.770229 1.165573
 H 7.585308 2.476822 2.725425
 H 7.519377 3.461369 1.275268