19
charge = 0
 C 1.066257 0.522699 2.516160
 O 2.459493 0.405723 2.468658
 C 2.996910 0.866853 1.255207
 C 4.508312 0.744340 1.301511
 C 5.140047 1.611366 2.340084
 C 6.054399 2.542578 2.095441
 C 6.689178 3.413455 3.125188
 H 0.734427 0.141562 3.482453
 H 0.583917 -0.061969 1.719597
 H 0.744629 1.569202 2.417311
 H 2.706673 1.916045 1.087656
 H 2.596057 0.274433 0.417358
 H 4.907410 0.992218 0.313124
 H 4.750061 -0.307994 1.493822
 H 4.803754 1.452322 3.362819
 H 6.382122 2.693355 1.066681
 H 6.301301 3.197761 4.122686
 H 6.512442 4.472773 2.912138
 H 7.775302 3.276189 3.144916