19
charge = 0
 C 0.907994 0.086022 -1.139779
 O 2.141822 0.060027 -1.811841
 C 3.047451 -0.868406 -1.247939
 C 4.370965 -0.848531 -1.983012
 C 4.413563 -1.501214 -3.364022
 C 3.743043 -0.739671 -4.497523
 O 2.339132 -0.744204 -4.447389
 H 0.277856 0.823955 -1.636019
 H 1.039056 0.375477 -0.089346
 H 0.411680 -0.892330 -1.174955
 H 2.607320 -1.877033 -1.273679
 H 3.207914 -0.604566 -0.192793
 H 5.085941 -1.367952 -1.336134
 H 4.716198 0.190013 -2.046842
 H 3.978255 -2.506214 -3.313474
 H 5.466960 -1.632171 -3.637551
 H 4.015317 -1.208955 -5.447009
 H 4.136201 0.289514 -4.524473
 H 2.085220 -0.342673 -3.602031