17
charge = 0
 C 4.202104 -1.121120 -0.284300
 O 3.077545 -0.306489 -0.059282
 C 3.308725 0.901096 0.492478
 C 4.473886 1.426173 0.865394
 C 4.583664 2.795784 1.450710
 C 5.558085 3.692025 0.698242
 O 6.880745 3.193311 0.703709
 H 3.834349 -2.040527 -0.736969
 H 4.714806 -1.355432 0.655423
 H 4.911951 -0.635793 -0.963338
 H 2.374918 1.442975 0.611649
 H 5.400193 0.878247 0.735490
 H 4.914183 2.739649 2.498484
 H 3.601225 3.280461 1.466965
 H 5.522930 4.708794 1.113790
 H 5.269609 3.753692 -0.353743
 H 7.198290 3.197143 1.610487