15
charge = 0
 C 4.322251 0.393328 -0.970080
 O 3.148969 0.252546 -0.191808
 C 3.212128 -0.544311 0.871899
 C 4.266195 -1.246659 1.311783
 C 4.225123 -2.098341 2.502776
 C 2.943607 -2.210225 3.295562
 O 5.217271 -2.708545 2.847134
 H 4.069825 1.074234 -1.780020
 H 4.634287 -0.571315 -1.380644
 H 5.136586 0.813647 -0.372872
 H 2.254658 -0.567819 1.381450
 H 5.223399 -1.225568 0.805685
 H 2.132138 -2.604085 2.678144
 H 2.628920 -1.234422 3.674500
 H 3.114053 -2.882175 4.134290