15
charge = 0
 C 5.132392 -0.646160 0.015128
 O 3.745917 -0.533590 0.240893
 C 3.357871 0.271169 1.241490
 C 4.120046 1.004171 2.053935
 C 3.542444 1.845415 3.149270
 C 3.898599 1.268644 4.496780
 O 4.555260 1.827764 5.330247
 H 5.255228 -1.337930 -0.815994
 H 5.643749 -1.040279 0.899987
 H 5.568002 0.323768 -0.247800
 H 2.274853 0.275181 1.325006
 H 5.200147 0.997940 1.960164
 H 2.448660 1.854567 3.071438
 H 3.902565 2.876670 3.111672
 H 3.519268 0.236360 4.666564