17
charge = 0
 C 1.366328 0.078306 0.147891
 O 2.736395 0.091846 0.471062
 C 3.119802 0.841509 1.526953
 C 2.304977 1.575097 2.292237
 C 4.605418 0.811495 1.685807
 C 5.284892 1.746152 0.687480
 O 4.953696 3.095741 0.908702
 H 1.259693 -0.574124 -0.717011
 H 1.010244 1.082755 -0.104691
 H 0.769319 -0.313885 0.977968
 H 1.235233 1.624264 2.145162
 H 2.722041 2.123505 3.125298
 H 4.962998 -0.210003 1.526127
 H 4.871612 1.117986 2.698945
 H 5.029616 1.436157 -0.335012
 H 6.369056 1.671732 0.797311
 H 3.995079 3.146967 1.001590