15
charge = 0
 C 1.724293 -0.130507 0.721378
 O 3.078745 -0.452487 0.513822
 C 3.335416 -1.520780 -0.271068
 C 2.441031 -2.305319 -0.872083
 C 4.809798 -1.775798 -0.426354
 C 5.743728 -0.842399 0.287084
 O 5.205458 -2.697001 -1.098095
 H 1.708085 0.744522 1.368674
 H 1.194652 -0.956929 1.207582
 H 1.227208 0.104223 -0.226090
 H 1.372797 -2.164412 -0.792085
 H 2.817063 -3.123860 -1.469414
 H 5.544990 -0.855052 1.361521
 H 5.578339 0.185749 -0.044004
 H 6.769796 -1.144250 0.087913