15
charge = 0
 C 2.836704 0.522868 0.042214
 O 2.306506 -0.580304 -0.667644
 C 3.154025 -1.431157 -1.255594
 C 2.401922 -2.522797 -1.950710
 C 4.498640 -1.304429 -1.215357
 C 5.390632 -2.241844 -1.861718
 O 6.598809 -2.153829 -1.843723
 H 1.979428 1.069222 0.429799
 H 3.418971 1.169659 -0.619755
 H 3.466913 0.187692 0.870506
 H 1.333530 -2.364587 -1.811919
 H 2.663901 -3.502197 -1.548096
 H 2.616324 -2.531999 -3.020245
 H 4.975980 -0.486487 -0.691764
 H 4.907435 -3.082811 -2.401315