19
charge = 0
 C 1.509156 0.067936 0.066029
 O 2.820524 0.558006 -0.019309
 C 3.044383 1.719660 -0.826063
 C 2.553752 1.517456 -2.251811
 C 2.418422 2.951876 -0.190891
 C 4.566483 1.852362 -0.795065
 O 5.216416 0.700694 -1.265634
 H 1.526006 -0.741731 0.796549
 H 1.150721 -0.334820 -0.888210
 H 0.800886 0.828805 0.414558
 H 1.468604 1.403954 -2.293626
 H 3.022758 0.638576 -2.696412
 H 2.816402 2.386412 -2.859009
 H 1.327590 2.914564 -0.223047
 H 2.728214 3.852239 -0.726959
 H 2.731942 3.044583 0.851070
 H 4.868911 2.082864 0.236603
 H 4.876195 2.683014 -1.433791
 H 4.824415 -0.035841 -0.783183