19
charge = 0
 C 3.063717 2.053776 0.193326
 O 3.882146 1.731278 -0.898550
 C 3.319384 0.791970 -1.800479
 C 2.241891 1.403465 -2.674845
 C 4.493155 0.207482 -2.583447
 C 5.199772 1.213815 -3.475485
 O 5.398237 -0.393799 -1.680320
 H 3.647196 2.689516 0.860109
 H 2.754653 1.153034 0.740940
 H 2.164354 2.603034 -0.110018
 H 2.890622 -0.035533 -1.214070
 H 2.614942 2.293312 -3.185009
 H 1.365663 1.687536 -2.089135
 H 1.911909 0.683710 -3.428211
 H 4.101482 -0.609745 -3.198388
 H 5.544642 2.070300 -2.891747
 H 4.547498 1.580332 -4.271547
 H 6.066048 0.737258 -3.936615
 H 5.558788 0.263540 -0.993418