17
charge = 0
 C 3.315530 -1.660225 -0.390852
 O 3.089754 -1.536306 0.989719
 C 3.194273 -0.212968 1.455076
 C 2.476009 -0.122826 2.788936
 C 4.642889 0.244125 1.636793
 C 5.661204 -0.805225 1.981779
 O 4.919682 1.414110 1.544187
 H 3.209258 -2.715065 -0.644068
 H 4.321537 -1.328434 -0.681873
 H 2.584288 -1.078736 -0.967264
 H 2.732720 0.484336 0.742082
 H 2.918036 -0.811696 3.512297
 H 1.427048 -0.393013 2.659000
 H 2.536985 0.892233 3.183476
 H 5.839534 -1.448625 1.116090
 H 5.293564 -1.457959 2.776651
 H 6.592579 -0.325244 2.276463