17
charge = 0
 C 1.754445 -2.721438 -0.832130
 O 3.094265 -2.347964 -0.646377
 C 3.238305 -1.276132 0.264526
 C 4.689602 -1.006852 0.514231
 C 5.181999 0.223663 0.447270
 C 5.534794 -2.192794 0.888936
 O 5.772942 -3.062649 -0.196593
 H 1.737637 -3.546703 -1.543636
 H 1.162731 -1.889862 -1.236660
 H 1.296294 -3.050057 0.110376
 H 2.749962 -1.548912 1.215506
 H 2.736279 -0.378413 -0.121297
 H 4.565993 1.070871 0.163608
 H 6.221422 0.426362 0.681084
 H 5.051710 -2.732256 1.719906
 H 6.511238 -1.853849 1.240749
 H 4.918592 -3.213334 -0.618789