19
charge = 0
 C 2.594162 0.391270 3.472850
 O 3.790458 0.457904 2.747098
 C 3.766252 -0.319592 1.575483
 C 5.057907 -0.070290 0.806422
 C 4.992482 -0.761229 -0.541156
 C 6.266380 -0.540248 1.607169
 O 5.161433 1.321853 0.540632
 H 2.703204 1.030005 4.349767
 H 2.383057 -0.634358 3.804769
 H 1.742070 0.745182 2.876617
 H 2.911518 -0.026871 0.947655
 H 3.663316 -1.386938 1.823244
 H 5.901817 -0.549804 -1.106656
 H 4.140442 -0.395291 -1.117609
 H 4.903130 -1.843515 -0.424197
 H 7.181384 -0.297084 1.064012
 H 6.236444 -1.620485 1.773087
 H 6.297125 -0.047371 2.580722
 H 4.989409 1.771262 1.375682