17
charge = 0
 C 1.821352 -3.142317 -0.471487
 O 3.152713 -2.728946 -0.323125
 C 3.285329 -1.645788 0.557205
 C 4.757845 -1.277052 0.691374
 C 4.952126 0.030995 1.432140
 C 5.521019 -2.415622 1.322275
 O 6.271226 -2.296348 2.253345
 H 1.812353 -3.976769 -1.172529
 H 1.192657 -2.334376 -0.870570
 H 1.393686 -3.474311 0.484401
 H 2.865701 -1.898199 1.544956
 H 2.726362 -0.774523 0.182344
 H 5.145667 -1.196821 -0.334688
 H 4.525490 -0.020812 2.436586
 H 4.474660 0.854228 0.896886
 H 6.012235 0.256825 1.545977
 H 5.342389 -3.407265 0.860021