17
charge = 0
 C 1.134172 -1.416698 1.473096
 O 2.520679 -1.566509 1.351056
 C 2.963342 -1.424364 0.022217
 C 4.462248 -1.627960 -0.018553
 C 4.891646 -3.008972 0.441844
 C 4.633596 -4.114770 -0.535115
 O 4.183910 -3.973460 -1.640372
 H 0.877711 -1.548827 2.524692
 H 0.592642 -2.164813 0.877292
 H 0.806455 -0.418197 1.150797
 H 2.712609 -0.420213 -0.352309
 H 2.457686 -2.153092 -0.627014
 H 4.933230 -0.872815 0.616635
 H 4.805101 -1.457545 -1.042505
 H 4.404395 -3.278591 1.386670
 H 5.967635 -3.043113 0.660463
 H 4.907145 -5.129171 -0.168607