19
charge = 0
 C 2.837559 -0.831850 -0.855118
 O 2.457967 0.022215 0.197907
 C 2.776386 -0.418583 1.500946
 C 2.176580 0.628307 2.422520
 C 2.225505 -1.801371 1.800063
 O 4.173763 -0.544423 1.659369
 C 4.922720 0.639071 1.515187
 H 2.738537 -0.255157 -1.775303
 H 2.186805 -1.710918 -0.924449
 H 3.875208 -1.164615 -0.752482
 H 1.088499 0.586296 2.365794
 H 2.488463 1.629938 2.125641
 H 2.484971 0.443439 3.452713
 H 1.158543 -1.837933 1.574601
 H 2.372520 -2.034076 2.855117
 H 2.745256 -2.560234 1.214693
 H 5.967627 0.338485 1.431903
 H 4.819121 1.297917 2.384806
 H 4.637458 1.191483 0.614383