17
charge = 0
 C 0.561716 0.784183 1.612585
 O 1.933461 1.037401 1.500484
 C 2.705393 -0.131262 1.674777
 C 4.141096 0.173885 1.448269
 C 5.039066 0.044980 2.423203
 O 6.362584 0.265271 2.369994
 C 6.880227 0.711570 1.138334
 H 0.037784 1.727556 1.456303
 H 0.300332 0.394579 2.607221
 H 0.219963 0.058716 0.859931
 H 2.356820 -0.899314 0.964316
 H 2.556359 -0.538793 2.687156
 H 4.421217 0.512512 0.457547
 H 4.749784 -0.281472 3.417683
 H 7.951845 0.839440 1.280555
 H 6.431588 1.666988 0.846390
 H 6.700075 -0.023962 0.346742