17
charge = 0
 C 2.595491 0.469896 0.266649
 O 2.223116 -0.687734 -0.436427
 C 3.209225 -1.466415 -0.966718
 C 2.557285 -2.591368 -1.710129
 O 1.648464 -2.131579 -2.686361
 C 4.516243 -1.243687 -0.820788
 C 5.626972 -2.057665 -1.397059
 H 1.670541 0.959173 0.568667
 H 3.178411 1.148563 -0.365663
 H 3.181164 0.222494 1.158958
 H 2.047395 -3.238580 -0.980460
 H 3.299372 -3.195254 -2.227711
 H 1.085656 -1.480459 -2.256320
 H 4.828905 -0.394107 -0.222409
 H 5.276623 -2.854225 -2.052620
 H 6.227932 -2.521044 -0.607584
 H 6.306404 -1.427428 -1.979134