15
charge = 0
 C 2.427602 0.075160 -1.676649
 O 2.228286 -1.204066 -1.126569
 C 2.853247 -1.403030 0.123301
 C 2.399187 -2.778816 0.598394
 O 2.754898 -3.795644 -0.294293
 C 4.311235 -1.292235 0.045226
 C 5.506225 -1.193864 -0.003277
 H 1.874609 0.107780 -2.614946
 H 3.488000 0.266751 -1.873553
 H 2.044097 0.856808 -1.007712
 H 2.489123 -0.653320 0.844821
 H 1.310807 -2.729892 0.742547
 H 2.866969 -3.005013 1.558209
 H 2.466263 -3.515392 -1.169083
 H 6.567291 -1.119818 -0.048215