17
charge = 0
 C 1.978671 2.075242 1.092884
 O 3.258897 1.569733 1.357944
 C 3.293131 0.164656 1.417347
 C 4.742812 -0.254304 1.594856
 O 5.519362 0.245512 0.522629
 C 5.297397 0.176321 2.919969
 C 5.738004 -0.662648 3.845094
 H 2.055127 3.161814 1.049112
 H 1.268358 1.799820 1.883761
 H 1.592321 1.704426 0.133851
 H 2.904997 -0.261842 0.480428
 H 2.680354 -0.206336 2.251330
 H 4.789178 -1.345934 1.528605
 H 5.264717 1.168150 0.408527
 H 5.326588 1.249446 3.093595
 H 5.723018 -1.737044 3.686588
 H 6.132958 -0.312713 4.791960