15
charge = 0
 C 1.311057 0.472353 0.054310
 O 2.696014 0.384094 -0.143314
 C 3.045576 -0.494653 -1.176430
 C 4.558001 -0.439904 -1.338357
 O 4.981178 0.874616 -1.614086
 C 5.244918 -1.013680 -0.176981
 C 5.810273 -1.487088 0.769584
 H 1.139524 1.182855 0.862816
 H 0.884909 -0.499119 0.337949
 H 0.798299 0.828052 -0.849754
 H 2.582713 -0.178624 -2.122852
 H 2.723371 -1.521325 -0.951636
 H 4.820807 -1.034250 -2.219670
 H 4.623865 1.428452 -0.910494
 H 6.316395 -1.900088 1.609926