15
charge = 0
 C 1.703810 -0.843464 0.477105
 O 2.976273 -0.452842 -0.031312
 C 3.467033 -1.231201 -1.003964
 O 2.889291 -2.187009 -1.444758
 C 4.838439 -0.765522 -1.425931
 C 5.213722 -1.221686 -2.795702
 C 5.744602 -0.435739 -3.719961
 H 1.456225 -0.116896 1.247790
 H 1.750575 -1.847900 0.900196
 H 0.953887 -0.830484 -0.314821
 H 5.532006 -1.188328 -0.685492
 H 4.905157 0.318932 -1.323631
 H 5.023849 -2.268644 -3.012728
 H 5.932317 0.617572 -3.534674
 H 6.011723 -0.817499 -4.698216