19
charge = 0
 C 6.291818 -1.085049 1.000888
 O 5.124239 -1.771461 0.614787
 C 5.313836 -3.144660 0.467646
 O 5.578511 -3.804506 1.663136
 C 4.454336 -3.934155 2.534952
 C 3.635446 -5.157191 2.165449
 C 4.996557 -4.014942 3.944297
 H 6.040372 -0.026005 1.053813
 H 7.092680 -1.225466 0.262438
 H 6.654550 -1.420012 1.977576
 H 6.177268 -3.349346 -0.178589
 H 4.397090 -3.513500 -0.006112
 H 3.835498 -3.033135 2.439841
 H 4.241258 -6.061009 2.266983
 H 3.271970 -5.102548 1.136950
 H 2.764734 -5.248008 2.819432
 H 5.659117 -4.878319 4.044708
 H 4.182234 -4.120012 4.664486
 H 5.564587 -3.116586 4.191829