17
charge = 0
 C 2.472723 -1.396708 -2.272695
 O 2.211243 -0.011698 -2.266578
 C 2.785700 0.651389 -1.186720
 O 4.177065 0.695073 -1.225981
 C 4.688198 1.510749 -2.265118
 C 6.165432 1.611379 -2.114706
 C 7.028051 1.389343 -3.094692
 H 1.947194 -1.819087 -3.128682
 H 2.099989 -1.870240 -1.354726
 H 3.542928 -1.606468 -2.364586
 H 2.536484 0.149774 -0.242909
 H 2.362954 1.664041 -1.205669
 H 4.233569 2.512098 -2.188751
 H 4.425727 1.104244 -3.248223
 H 6.518564 1.902776 -1.128447
 H 6.695609 1.086280 -4.082841
 H 8.095572 1.506465 -2.949384