15
charge = 0
 O 0.982258 -0.010752 -0.911707
 C 2.036473 -0.068720 -0.013659
 C 2.425060 -1.349997 0.785802
 C 3.761774 -0.564103 0.902791
 C 3.482862 -0.089960 -0.554387
 C 3.300533 0.659489 1.688690
 C 2.162873 0.991476 1.085277
 H 0.156943 0.011031 -0.419465
 H 2.497405 -2.233649 0.147111
 H 1.882645 -1.559434 1.709563
 H 4.692960 -1.050279 1.181497
 H 3.639630 -0.873360 -1.299726
 H 3.914203 0.860747 -0.869696
 H 3.806784 1.121935 2.524265
 H 1.472907 1.803466 1.270645