13
charge = 0
 O 1.246609 -0.072226 -0.671303
 C 2.326461 0.168937 -0.258812
 C 3.446502 -0.543828 0.584055
 C 3.598888 0.855943 1.231100
 C 3.310796 1.393584 -0.193399
 C 4.426186 0.751130 -0.980088
 C 4.513260 -0.491733 -0.481325
 H 3.282871 -1.454387 1.153119
 H 4.592476 1.082841 1.623102
 H 2.811021 1.089971 1.951828
 H 3.011699 2.417015 -0.400417
 H 4.925367 1.176439 -1.838641
 H 5.100752 -1.326984 -0.834018