15
charge = 0
 O 1.192969 0.134006 0.196621
 C 2.582317 0.043904 0.118156
 C 3.154335 -0.916284 -0.944039
 C 4.664682 -0.729856 -0.784209
 C 4.666471 0.823884 -0.768737
 C 3.156804 1.018100 -0.915555
 O 2.825302 0.063767 -1.957662
 H 0.849760 -0.682146 0.568515
 H 3.052792 0.027553 1.110530
 H 2.749720 -1.911470 -1.129372
 H 5.207555 -1.145629 -1.632829
 H 5.055651 -1.174524 0.133518
 H 5.202314 1.253951 -1.614463
 H 5.065148 1.250710 0.153679
 H 2.743661 2.013843 -1.065873