17
charge = 0
 O 0.721519 -0.032266 -0.145176
 C 2.071926 0.000664 0.188466
 C 3.048761 -0.955109 -0.435489
 C 2.566566 -1.768891 -1.624281
 C 2.682959 -0.828673 -2.831708
 C 2.529356 0.590836 -2.269278
 C 3.028406 0.506715 -0.835940
 H 0.320139 -0.788089 0.292031
 H 2.269851 0.291606 1.218601
 H 3.836735 -1.354157 0.192669
 H 1.529257 -2.089765 -1.485200
 H 3.166625 -2.672394 -1.748569
 H 1.958071 -1.055177 -3.617702
 H 3.680335 -0.935006 -3.269988
 H 1.484284 0.908973 -2.292068
 H 3.106368 1.320733 -2.840168
 H 3.803130 1.189088 -0.507579