15
charge = 0
 O 0.770967 0.118250 -0.635758
 C 2.029214 0.026442 -0.054219
 C 3.005063 -1.064657 -0.429364
 C 2.739710 -1.827909 -1.706892
 C 2.540960 -0.735844 -2.765719
 O 3.126719 0.454742 -2.252383
 C 3.236017 0.353695 -0.872320
 H 0.208318 -0.555602 -0.243972
 H 2.078064 0.352161 0.984336
 H 3.592197 -1.537263 0.348635
 H 1.867320 -2.484140 -1.649517
 H 3.608491 -2.451417 -1.931643
 H 1.477866 -0.565785 -2.948596
 H 3.033585 -0.965491 -3.713612
 H 4.005808 1.000328 -0.469777