13
charge = 0
 O 1.320368 0.039099 1.079402
 C 2.476684 0.020758 0.309048
 C 2.407640 0.717983 -1.009663
 O 3.605947 1.125281 -1.624021
 C 4.315130 -0.010219 -1.878473
 C 3.688242 -1.141915 -1.561646
 C 2.385633 -0.797874 -0.948494
 H 1.213068 0.921026 1.447897
 H 3.422701 0.006205 0.847170
 H 1.554221 1.338900 -1.250642
 H 5.289409 0.151857 -2.316126
 H 4.066559 -2.139005 -1.724508
 H 1.489698 -1.383807 -1.114724