17
charge = 0
 O 0.841653 0.423500 -0.433377
 C 2.201596 0.331996 -0.142122
 C 3.025777 -0.742673 -0.780283
 C 3.130359 0.688974 -1.245362
 C 4.372080 1.489099 -1.051153
 C 4.304449 2.899874 -0.549030
 C 4.912912 1.828799 0.304229
 H 0.390330 -0.293452 0.020377
 H 2.468215 0.627081 0.870552
 H 2.514130 -1.443161 -1.429085
 H 3.852103 -1.151595 -0.210501
 H 2.610165 0.888082 -2.177964
 H 5.127750 1.300232 -1.808424
 H 3.328346 3.271066 -0.260443
 H 4.957441 3.641587 -0.991953
 H 4.362599 1.510156 1.181161
 H 5.988095 1.825355 0.433577