15
charge = 0
 O 0.945125 0.376442 -0.263771
 C 2.288914 0.152433 0.013229
 C 3.065442 -0.740694 -0.911065
 C 3.255775 0.752525 -0.942758
 C 2.614963 0.130084 1.466369
 C 1.822247 0.866484 2.442332
 O 1.665051 -0.541533 2.285290
 H 0.449408 -0.294335 0.220648
 H 2.509964 -1.185494 -1.726483
 H 3.856732 -1.355234 -0.498349
 H 2.822504 1.292026 -1.775099
 H 4.177303 1.169374 -0.554504
 H 3.653895 -0.093746 1.704713
 H 0.984894 1.463806 2.094721
 H 2.277393 1.175453 3.379596