15
charge = 0
 O 0.816808 0.386050 -1.056276
 C 2.008637 0.237934 -0.355951
 C 2.877959 -0.953474 -0.612329
 C 3.262866 0.404135 -1.139901
 C 4.442142 1.148214 -0.572652
 C 4.319830 2.634737 -0.766716
 O 5.201920 3.345400 -1.162693
 H 0.177942 -0.239167 -0.702977
 H 1.999204 0.638358 0.656925
 H 2.520210 -1.677106 -1.334137
 H 3.447914 -1.366515 0.211979
 H 3.096375 0.536994 -2.204245
 H 5.387996 0.814214 -1.005898
 H 4.497098 0.970545 0.509959
 H 3.322609 3.057560 -0.513188