15
charge = 0
 O 0.993327 0.125659 0.051772
 C 2.394628 0.034147 0.058259
 C 2.984083 -1.096457 0.943406
 C 3.747363 -0.198438 1.921107
 C 4.457136 0.804759 1.002792
 C 2.987935 1.210088 0.836539
 O 2.765313 0.826317 2.216192
 H 0.633561 -0.686341 -0.312539
 H 2.785534 0.006298 -0.967365
 H 3.625301 -1.794178 0.401197
 H 2.190769 -1.647475 1.451262
 H 4.208502 -0.643105 2.802017
 H 5.015116 0.437575 0.138739
 H 5.019789 1.549321 1.563092
 H 2.649134 2.212630 0.582241