13
charge = 0
 O 1.596390 0.265090 1.250699
 C 2.364641 0.047979 0.367422
 C 2.967724 -1.286594 -0.042896
 C 3.946490 -0.945324 -1.128944
 C 5.053526 0.014407 -0.775975
 C 3.780179 0.524698 -1.352333
 O 2.840928 1.033560 -0.437208
 H 2.159589 -1.930453 -0.398584
 H 3.401108 -1.764208 0.838097
 H 4.085715 -1.622707 -1.960481
 H 5.928018 0.017803 -1.414368
 H 5.247664 0.223201 0.270466
 H 3.723228 0.999857 -2.321494