17
charge = 0
 O 1.109046 -0.289338 0.269068
 C 2.474505 0.014077 0.208375
 C 3.040108 1.180168 1.036556
 C 4.252289 0.281574 1.341983
 C 3.378315 -0.949482 0.996031
 C 3.982836 -2.113317 0.305505
 C 3.866849 -3.377278 0.690441
 H 0.634916 0.272221 -0.348898
 H 2.821472 0.079354 -0.832462
 H 2.425062 1.332251 1.926224
 H 3.208088 2.138570 0.542625
 H 4.683222 0.319936 2.342083
 H 5.052685 0.414415 0.610037
 H 2.827024 -1.270522 1.885301
 H 4.563422 -1.884542 -0.588419
 H 3.296603 -3.648074 1.573713
 H 4.331859 -4.185624 0.137938