15
charge = 0
 O 0.984233 0.272631 -0.024403
 C 2.394845 0.131915 0.078996
 C 3.091524 1.395039 0.514951
 C 3.602462 1.280456 1.739885
 C 3.414276 -0.080780 2.288242
 C 4.108349 -1.166865 1.501754
 C 2.684526 -0.835892 1.205761
 H 0.795702 0.999796 -0.623230
 H 2.796015 -0.237253 -0.877075
 H 3.173491 2.269466 -0.121387
 H 4.137366 2.061152 2.268960
 H 3.220716 -0.234015 3.342709
 H 4.299234 -2.107789 2.004844
 H 4.876452 -0.856747 0.801833
 H 1.913520 -1.557124 1.443359