15
charge = 0
 O 1.561770 0.550117 0.788425
 C 2.547271 0.000775 -0.054330
 C 2.344489 -1.478730 -0.407243
 C 3.014243 -1.661714 -1.773545
 C 2.860062 -0.307039 -2.418695
 O 1.549619 0.227180 -2.287968
 C 2.554939 0.686013 -1.394367
 H 1.566737 0.068785 1.619379
 H 3.548098 0.149638 0.383881
 H 1.270541 -1.652826 -0.489055
 H 2.743781 -2.150474 0.355226
 H 2.564428 -2.464049 -2.363511
 H 4.081150 -1.886412 -1.671841
 H 3.377422 -0.057747 -3.340378
 H 2.815640 1.736593 -1.474879