17
charge = 0
 O 1.080712 -0.137008 -0.291093
 C 2.465969 -0.067743 -0.062668
 C 2.916383 1.080526 0.831939
 C 4.270392 0.628868 1.411717
 C 4.342613 -0.890516 1.164497
 C 2.946154 -1.297261 0.696708
 O 2.886063 -2.510614 -0.006150
 H 0.807067 0.652260 -0.764396
 H 3.011459 -0.030962 -1.023004
 H 2.169972 1.192939 1.623941
 H 2.975365 2.034516 0.302674
 H 4.338354 0.870355 2.473581
 H 5.102441 1.141025 0.925042
 H 4.662207 -1.459069 2.038451
 H 5.055260 -1.117780 0.363656
 H 2.277283 -1.430097 1.554166
 H 3.427997 -2.429330 -0.796550