15
charge = 0
 O 1.003541 -0.117264 0.049817
 C 2.396456 -0.035614 0.107197
 C 2.992148 1.069733 0.972144
 C 4.408813 0.566141 1.259297
 C 4.226341 -0.932432 1.495296
 C 2.990547 -1.314230 0.702153
 O 2.538378 -2.415237 0.572832
 H 0.674419 0.586664 -0.513365
 H 2.837051 0.032742 -0.904001
 H 2.410550 1.134362 1.897811
 H 2.972669 2.050285 0.492331
 H 4.873594 1.078420 2.102239
 H 5.047659 0.736549 0.387337
 H 4.002908 -1.146359 2.546416
 H 5.077727 -1.556867 1.220386