17
charge = 0
 O 1.138354 0.051743 0.142610
 C 2.337161 0.025942 0.008700
 C 3.117157 -1.266087 -0.055517
 C 4.090337 -1.286736 -1.235648
 C 4.975740 -0.049699 -1.250795
 C 4.138818 1.220280 -1.284642
 C 3.166463 1.283365 -0.105337
 H 2.410967 -2.096996 -0.085288
 H 3.688179 -1.345899 0.879196
 H 3.519275 -1.333663 -2.170131
 H 4.696114 -2.196184 -1.196562
 H 5.648035 -0.079550 -2.112994
 H 5.612941 -0.044563 -0.357475
 H 3.569289 1.252708 -2.220674
 H 4.779320 2.106469 -1.280650
 H 2.492892 2.139150 -0.168067
 H 3.740852 1.377489 0.825974