15
charge = 0
 O 1.039999 -0.097053 0.596297
 C 2.323864 -0.017449 0.006592
 C 2.495250 1.233536 -0.841562
 C 3.725416 1.157248 -1.697264
 C 4.159075 -0.023678 -2.143910
 C 3.443662 -1.247319 -1.799035
 C 2.543291 -1.249729 -0.814885
 H 0.932744 0.651531 1.188420
 H 3.095832 -0.012096 0.798662
 H 2.518121 2.119860 -0.200440
 H 1.610091 1.333707 -1.488713
 H 4.210935 2.078264 -2.001297
 H 5.018594 -0.083952 -2.802553
 H 3.655821 -2.153928 -2.355205
 H 1.996496 -2.141233 -0.528815