17
charge = 0
 O 1.264114 -0.102871 0.950481
 C 2.446030 -0.032216 0.174584
 C 2.440766 1.146014 -0.784426
 C 3.742465 1.210335 -1.574365
 C 4.145532 -0.136525 -2.087638
 C 3.606073 -1.271793 -1.656494
 C 2.559181 -1.336661 -0.588694
 H 1.176538 0.717284 1.443005
 H 3.323005 0.060641 0.835432
 H 2.284084 2.079248 -0.231851
 H 1.591507 1.028619 -1.466239
 H 4.548151 1.618562 -0.949372
 H 3.640684 1.910450 -2.410157
 H 4.916809 -0.168712 -2.852192
 H 3.933711 -2.214140 -2.086183
 H 2.775403 -2.153143 0.107362
 H 1.579446 -1.567702 -1.026254