17
charge = 0
 O 1.028349 -0.094757 -0.082656
 C 2.423754 -0.051649 0.113243
 C 2.918963 1.096349 0.990811
 C 4.301979 0.626711 1.435254
 C 4.180420 -0.881881 1.517196
 C 5.071156 -1.700096 2.059995
 C 2.879931 -1.288969 0.872958
 H 0.766110 0.677869 -0.589030
 H 2.941413 -0.010662 -0.857803
 H 2.243487 1.179730 1.848452
 H 2.930769 2.059899 0.475213
 H 4.631050 1.072585 2.375863
 H 5.052403 0.888576 0.680666
 H 5.976719 -1.323588 2.523900
 H 4.927605 -2.775145 2.062429
 H 2.125207 -1.498719 1.640739
 H 2.965005 -2.178254 0.246579