17
charge = 0
 O 1.094171 -0.267333 0.601173
 C 2.408110 -0.048274 0.110638
 C 2.491437 1.161815 -0.806233
 C 3.831370 1.193359 -1.526053
 C 4.006113 -0.038337 -2.406657
 C 3.532187 -1.287107 -1.731158
 C 2.823364 -1.292992 -0.608204
 H 0.828817 0.510640 1.098624
 H 3.089456 0.104272 0.965434
 H 2.338169 2.080851 -0.229972
 H 1.673346 1.089665 -1.531226
 H 4.637325 1.222477 -0.783632
 H 3.925400 2.104103 -2.123284
 H 5.055641 -0.152125 -2.698833
 H 3.453847 0.087029 -3.347941
 H 3.784198 -2.232843 -2.203542
 H 2.503748 -2.227419 -0.157144