11
charge = 0
 O 1.363212 -0.022330 0.850527
 C 2.381680 0.079197 0.259102
 C 3.375511 1.168109 -0.088812
 C 4.139339 0.020369 -0.765967
 O 3.079180 -0.909357 -0.374871
 C 4.331298 0.093193 -2.195866
 C 4.505915 0.173898 -3.379595
 H 3.861917 1.630323 0.768607
 H 2.983589 1.929353 -0.760938
 H 5.066801 -0.261238 -0.263175
 H 4.656458 0.237372 -4.431901