15
charge = 0
 O 0.920393 0.032531 -0.045157
 C 2.320952 0.114609 -0.030454
 C 2.916958 1.219762 0.838229
 C 4.279634 0.637615 1.160259
 O 4.081602 -0.775528 1.227187
 C 2.929503 -1.116155 0.590543
 C 2.449664 -2.350226 0.557561
 H 0.583263 0.680967 -0.667391
 H 2.709372 0.208103 -1.056547
 H 2.308356 1.314123 1.741140
 H 2.972091 2.189589 0.341606
 H 4.687318 0.965816 2.117061
 H 5.012868 0.858715 0.375389
 H 2.959822 -3.166444 1.051029
 H 1.518704 -2.536878 0.042365