11
charge = 0
 O 1.043084 -0.009111 0.562103
 C 2.199788 -0.063030 0.319558
 C 3.309033 0.909963 -0.028878
 O 4.238770 -0.178692 -0.106813
 C 3.263641 -1.184353 0.232123
 C 3.063297 -2.202855 -0.771139
 C 2.867001 -3.043487 -1.604337
 H 3.554871 1.631054 0.757950
 H 3.181693 1.430452 -0.983978
 H 3.475451 -1.634831 1.210522
 H 2.699060 -3.790201 -2.344512