15
charge = 0
 O 1.060430 0.071721 0.222078
 C 2.417013 0.014822 -0.060525
 C 2.900007 -0.425253 -1.423342
 O 1.988471 -0.778538 -2.409113
 C 2.931292 1.018244 -1.053294
 C 4.172497 1.779329 -0.810232
 C 5.396884 1.412866 -1.165058
 H 0.743461 -0.817539 0.402078
 H 3.065388 -0.214979 0.783812
 H 3.845951 -0.962442 -1.451248
 H 1.673161 -1.668990 -2.233027
 H 2.111553 1.576021 -1.499434
 H 4.038479 2.720232 -0.279691
 H 5.585168 0.491629 -1.706226
 H 6.256538 2.030076 -0.932966