15
charge = 0
 O 1.101528 0.069104 0.789486
 C 2.360438 0.022105 0.150783
 C 2.525676 1.200284 -0.798158
 O 3.786575 1.192540 -1.445495
 C 4.146656 -0.017385 -1.936307
 C 3.560698 -1.172732 -1.635819
 C 2.451739 -1.268951 -0.634748
 H 1.096277 0.800689 1.412115
 H 3.175119 0.053552 0.887966
 H 2.464628 2.150960 -0.263542
 H 1.725679 1.166563 -1.548800
 H 4.988470 0.064564 -2.613694
 H 3.931736 -2.071856 -2.111369
 H 2.617103 -2.107987 0.047427
 H 1.484889 -1.450840 -1.119156