15
charge = 0
 O 0.938160 -0.027837 0.523299
 C 2.310621 0.028311 0.176644
 C 2.621553 1.249259 -0.679830
 O 3.927143 1.175618 -1.197264
 C 4.088409 0.114015 -2.106863
 C 3.444435 -1.155505 -1.657263
 C 2.640361 -1.202371 -0.603814
 H 0.757954 0.664014 1.164801
 H 2.928159 0.059036 1.087416
 H 2.569273 2.170990 -0.094305
 H 1.872556 1.305001 -1.483460
 H 5.166881 -0.026771 -2.226845
 H 3.690689 0.396543 -3.096909
 H 3.655813 -2.047086 -2.239992
 H 2.176493 -2.128096 -0.279214