17
charge = 0
 O 2.625538 -0.798857 0.951419
 C 1.932864 -0.014666 -0.001253
 C 2.622778 -0.140929 -1.320689
 C 2.331166 -1.311138 -2.205305
 C 1.836948 0.066248 -2.576047
 C 2.385084 0.765403 -3.756219
 C 3.481307 1.511539 -3.795740
 H 2.229772 -0.650926 1.813226
 H 1.911854 1.040725 0.305516
 H 0.890331 -0.351217 -0.103897
 H 3.648274 0.211673 -1.320469
 H 1.606201 -2.039833 -1.862101
 H 3.148773 -1.715364 -2.788763
 H 0.766792 0.204750 -2.441530
 H 1.816822 0.627385 -4.674747
 H 4.082987 1.697250 -2.912530
 H 3.815430 1.966646 -4.720581