17
charge = 0
 O 1.302496 -0.299732 0.710041
 C 2.496280 0.035048 0.019198
 C 2.933974 1.391292 0.440459
 C 4.113140 1.711591 0.966681
 C 4.214023 3.170960 1.293488
 C 2.995284 3.771353 0.570772
 C 2.035747 2.593824 0.338285
 H 0.927046 -1.082866 0.301741
 H 2.316070 0.036508 -1.066955
 H 3.291703 -0.692982 0.225428
 H 4.901959 0.998678 1.182948
 H 5.157465 3.620243 0.969685
 H 4.160193 3.319709 2.379967
 H 3.314323 4.172012 -0.395002
 H 2.535812 4.592105 1.124123
 H 1.519383 2.652539 -0.625199
 H 1.252601 2.535218 1.102540