11
charge = 0
 O 1.046332 -0.073032 0.391667
 C 2.208146 -0.077269 0.070224
 C 3.022650 -1.259379 -0.130247
 C 4.335315 -1.379511 -0.490931
 C 4.611455 -2.766756 -0.538109
 C 3.445582 -3.381918 -0.202565
 O 2.479768 -2.488179 0.045850
 H 2.769017 0.864373 -0.104742
 H 5.012169 -0.564338 -0.695387
 H 5.543335 -3.248661 -0.785802
 H 3.167830 -4.419121 -0.103866