15
charge = 0
 O 2.979472 1.120891 0.540177
 C 2.277924 0.004947 0.047421
 C 3.197541 -1.187959 0.016727
 C 2.466560 -2.495870 -0.348207
 C 3.241739 -2.959395 -1.546787
 C 4.172341 -2.054552 -1.820162
 O 4.218182 -0.990545 -0.986122
 H 2.446031 1.906540 0.405335
 H 1.898915 0.175648 -0.969805
 H 1.421996 -0.245461 0.692298
 H 3.714541 -1.259913 0.978092
 H 1.410920 -2.311764 -0.585794
 H 2.483921 -3.213796 0.476388
 H 3.057829 -3.864820 -2.103767
 H 4.904170 -2.037439 -2.616601