15
charge = 0
 O 3.264125 -0.233196 1.052160
 C 2.459375 -0.142507 -0.110827
 C 2.852404 1.068517 -0.873721
 C 3.171289 1.160849 -2.157142
 C 3.442259 2.582302 -2.515251
 O 3.273881 3.306857 -1.309414
 C 2.897654 2.432825 -0.259339
 H 2.901219 -0.916731 1.619823
 H 1.397146 -0.060039 0.166545
 H 2.570173 -1.031018 -0.745255
 H 3.230695 0.341975 -2.863336
 H 2.749447 2.961094 -3.281109
 H 4.462260 2.729545 -2.898221
 H 1.919453 2.731102 0.147836
 H 3.625910 2.489918 0.558651