17
charge = 0
 O 3.159987 0.347856 -1.137253
 C 2.215510 0.106089 -0.112934
 C 2.799422 -0.884896 0.852877
 C 1.882876 -1.404065 1.979905
 C 2.446769 -2.813140 1.756486
 O 3.461925 -3.053422 2.707237
 C 2.979619 -2.344517 0.387856
 H 2.784521 0.972656 -1.761180
 H 1.280404 -0.299985 -0.529412
 H 1.964786 1.035292 0.420490
 H 3.732877 -0.488986 1.258415
 H 0.825972 -1.346408 1.705834
 H 2.018607 -0.998320 2.982693
 H 1.723945 -3.637743 1.747953
 H 3.964240 -3.821473 2.422501
 H 2.290836 -2.594390 -0.424017
 H 3.983715 -2.672448 0.113360