15
charge = 0
 O 3.412318 0.307888 -0.934634
 C 2.481787 -0.063618 0.058996
 C 2.980193 0.461719 1.394916
 C 2.036544 0.108737 2.558301
 O 1.434541 1.333468 3.009936
 C 2.080725 2.341045 2.371215
 C 2.981637 1.964242 1.473891
 H 3.074224 0.038677 -1.791136
 H 2.381425 -1.158263 0.113786
 H 1.487869 0.359736 -0.144665
 H 3.978849 0.043629 1.558751
 H 2.573915 -0.330292 3.402695
 H 1.232882 -0.571690 2.264489
 H 1.772498 3.333975 2.669442
 H 3.579283 2.614027 0.855216