17
charge = 0
 O 2.838310 -0.431322 1.333591
 C 2.420780 0.059216 0.077647
 C 2.905091 -0.866995 -1.016791
 O 2.472822 -0.361954 -2.266384
 C 4.390260 -1.285746 -1.025668
 C 3.948382 -2.711218 -1.411387
 C 2.525384 -2.353482 -0.939652
 H 2.440150 0.105466 2.021267
 H 2.827905 1.066750 -0.106829
 H 1.326483 0.122120 0.009715
 H 2.977980 0.433439 -2.460033
 H 4.812334 -1.244788 -0.020524
 H 5.040202 -0.743029 -1.716652
 H 4.448012 -3.538421 -0.906622
 H 3.989607 -2.875374 -2.488349
 H 2.348048 -2.653573 0.093841
 H 1.683050 -2.650190 -1.565368