17
charge = 0
 O 2.884287 -2.395468 -0.739934
 C 2.356571 -1.952685 0.243546
 C 3.002593 -1.012125 1.216337
 C 4.447130 -0.691689 0.927947
 C 5.214422 0.230827 1.896248
 C 6.460613 -0.647165 1.674233
 C 5.527185 -1.765377 1.173834
 H 1.306505 -2.228665 0.488686
 H 2.880901 -1.445106 2.219477
 H 2.383702 -0.102520 1.229300
 H 4.539283 -0.319189 -0.096208
 H 4.836515 0.128934 2.917915
 H 5.276653 1.293089 1.652590
 H 7.096217 -0.857078 2.535466
 H 7.085221 -0.257651 0.867567
 H 5.236229 -2.433423 1.990322
 H 5.842376 -2.369819 0.323653