17
charge = 0
 O 0.702701 -0.182423 -0.265743
 C 2.103145 -0.318446 -0.264003
 C 2.771983 0.919368 -0.778129
 C 2.085094 1.992631 -1.149002
 C 4.252229 0.816185 -0.820623
 C 5.140847 2.016414 -0.828489
 C 5.069323 1.161407 0.398409
 H 0.321315 -0.984492 0.096002
 H 2.419133 -1.167616 -0.891326
 H 2.482885 -0.519326 0.749739
 H 1.005411 2.010480 -1.078182
 H 2.585472 2.871647 -1.536908
 H 4.619741 -0.041625 -1.379218
 H 4.676077 2.992669 -0.782153
 H 6.038988 1.975821 -1.431748
 H 4.533902 1.562252 1.250772
 H 5.916152 0.533364 0.646502