11
charge = 0
 O 1.852452 -1.085316 0.718663
 C 1.965682 0.017223 0.240829
 C 1.015842 0.543855 -0.719949
 C 0.224481 0.965793 -1.518824
 C 3.113690 0.900993 0.602907
 C 3.821471 1.655010 -0.439704
 O 2.942272 2.296566 0.452364
 H -0.485975 1.332489 -2.223221
 H 3.653712 0.571735 1.486686
 H 3.476080 1.591410 -1.468296
 H 4.878884 1.859351 -0.294075