11
charge = 0
 O 1.118199 0.308391 0.477148
 C 2.197941 -0.058375 0.091053
 C 2.885188 0.501898 -1.041774
 C 3.494675 0.941694 -1.985287
 C 4.227939 1.454639 -3.103319
 C 3.588099 1.581812 -4.421568
 O 3.832028 2.716221 -3.624583
 H 2.747569 -0.874747 0.597562
 H 5.303522 1.298124 -3.069180
 H 2.545145 1.296696 -4.525268
 H 4.209795 1.482057 -5.307672