13
charge = 0
 O 1.000751 -0.113090 -0.038159
 C 2.392939 0.091413 0.099064
 C 2.848239 1.074606 -0.866423
 C 3.243874 1.896177 -1.649790
 C 3.723808 2.851907 -2.606105
 C 2.866326 3.939500 -3.089580
 O 3.903954 4.196176 -2.168601
 H 0.729386 -0.742622 0.634924
 H 2.950302 -0.842269 -0.062217
 H 2.645636 0.453199 1.105847
 H 4.510029 2.495113 -3.267928
 H 1.858026 4.020989 -2.693504
 H 3.021929 4.323491 -4.094927