11
charge = 0
 O 1.428287 0.491324 0.832540
 C 2.185085 0.092897 0.002744
 C 2.962249 -1.233036 0.140946
 C 2.566481 -2.114935 -0.950482
 C 2.196715 -2.799232 -1.862712
 C 4.389070 -0.933530 0.141095
 C 5.548098 -0.627276 0.144556
 H 2.393817 0.640519 -0.936514
 H 2.669525 -1.669513 1.102051
 H 1.878244 -3.420535 -2.666556
 H 6.581829 -0.372382 0.150541