11
charge = 0
 O 0.924075 -0.304821 0.467817
 C 2.036004 -0.035672 0.092684
 C 2.767675 1.134595 0.501658
 C 3.425186 2.095398 0.808948
 C 4.184910 3.270165 1.206716
 C 5.508250 3.351686 0.601142
 C 6.598348 3.431132 0.110524
 H 2.582593 -0.691242 -0.611759
 H 4.277942 3.275462 2.299548
 H 3.606209 4.166232 0.951474
 H 7.566399 3.498676 -0.327152