11
charge = 0
 O 1.227408 0.492483 0.266140
 C 2.262689 -0.072816 0.073992
 C 3.072911 0.092265 -1.203463
 C 4.498782 0.063010 -0.967718
 C 5.681234 0.038923 -0.723807
 C 7.018916 0.013746 -0.462633
 C 8.201437 -0.009393 -0.230632
 H 2.693501 -0.775297 0.816002
 H 2.758061 1.015463 -1.697153
 H 2.788589 -0.739868 -1.863276
 H 9.245782 -0.028626 -0.026163