17
charge = 0
 O 1.923152 -1.289921 0.536176
 C 2.595773 -0.279002 -0.195347
 C 2.914722 0.845110 0.725642
 C 4.131489 1.342389 0.904747
 C 4.465497 2.499283 1.795069
 C 5.024880 3.659020 1.028588
 C 6.238355 4.165541 1.194671
 H 1.567304 -1.927794 -0.086639
 H 1.953588 0.090928 -1.009000
 H 3.520358 -0.660775 -0.648984
 H 2.069228 1.264289 1.268306
 H 4.967596 0.903610 0.361530
 H 5.195972 2.186062 2.549544
 H 3.560489 2.811329 2.328259
 H 4.366321 4.087697 0.275470
 H 6.924877 3.760435 1.932195
 H 6.589311 5.004198 0.604504