15
charge = 0
 O 2.268745 0.760482 -1.331595
 C 2.878885 0.434787 -0.095122
 C 3.072620 -1.039244 -0.034276
 C 4.233976 -1.627812 0.210061
 C 4.426959 -3.114144 0.293355
 C 5.008775 -3.536134 1.560134
 C 5.493033 -3.867492 2.607174
 H 1.985971 1.677141 -1.297845
 H 2.235707 0.746764 0.741451
 H 3.845721 0.942423 0.021463
 H 2.178738 -1.638627 -0.196275
 H 5.124350 -1.022725 0.366591
 H 5.089099 -3.443090 -0.517625
 H 3.470235 -3.622970 0.141728
 H 5.919086 -4.165659 3.535600