17
charge = 0
 O 1.008657 0.451741 -0.743327
 C 1.099270 -0.894885 -0.312725
 C 1.991597 -1.059671 0.884324
 C 1.508583 -1.513081 2.036656
 C 3.432616 -0.679915 0.668691
 C 4.239421 -0.502523 1.909332
 C 5.309290 -1.215661 2.231102
 H 0.646798 0.965620 -0.015882
 H 1.508728 -1.442444 -1.167578
 H 0.107337 -1.310554 -0.096006
 H 0.461752 -1.781361 2.134678
 H 2.139136 -1.646899 2.908388
 H 3.441676 0.251979 0.088991
 H 3.900181 -1.434441 0.023360
 H 3.905701 0.283787 2.584292
 H 5.672833 -2.012725 1.589487
 H 5.864032 -1.027256 3.143016