15
charge = 0
 O 1.053571 0.530502 -0.009004
 C 2.355175 -0.023217 -0.058102
 C 2.876515 0.051310 -1.411463
 C 3.328379 0.097691 -2.524056
 C 3.874732 0.179404 -3.871099
 C 5.007450 1.158746 -3.985356
 C 6.204224 0.860208 -4.465797
 H 0.739811 0.458623 0.896117
 H 2.348610 -1.075680 0.259402
 H 3.039100 0.515598 0.613058
 H 3.065245 0.479261 -4.549386
 H 4.204787 -0.810763 -4.201396
 H 4.793556 2.168184 -3.643775
 H 6.446765 -0.142967 -4.802870
 H 6.986081 1.606900 -4.539273