17
charge = 0
 O 1.655041 -0.590442 2.760825
 C 2.237800 -1.875679 2.669741
 C 3.048446 -1.939666 1.387665
 C 4.196057 -0.989806 1.372669
 C 5.470161 -1.335673 1.173798
 C 6.572502 -0.397238 1.165789
 C 7.847342 -0.732248 0.966929
 H 1.204537 -0.515005 3.604406
 H 1.463314 -2.654760 2.647502
 H 2.892882 -2.072507 3.529259
 H 2.367358 -1.712188 0.557904
 H 3.403822 -2.964502 1.244730
 H 3.952727 0.056283 1.545123
 H 5.719604 -2.382357 1.002335
 H 6.316552 0.646637 1.336116
 H 8.138933 -1.763264 0.792999
 H 8.636744 0.009216 0.970721