11
charge = 0
 O 1.028698 0.330060 -0.129792
 C 2.075503 0.294282 0.444287
 C 2.862320 -0.994052 0.643514
 C 4.291268 -0.793507 0.562437
 C 5.471925 -0.559220 0.494694
 C 6.893249 -0.349629 0.395709
 O 7.446527 0.675078 0.700261
 H 2.536544 1.199504 0.887745
 H 2.507848 -1.741028 -0.070784
 H 2.609736 -1.361245 1.648455
 H 7.457772 -1.219662 0.009885