15
charge = 0
 O 1.172213 1.772156 0.369700
 C 2.297781 0.935731 0.218541
 C 2.300118 -0.267079 1.152441
 C 2.390197 0.115404 2.592400
 C 3.311369 -0.336705 3.431206
 C 2.463198 0.537326 -1.238051
 O 3.039023 -0.441501 -1.620985
 H 0.378464 1.235557 0.281463
 H 3.161820 1.573288 0.450967
 H 3.126127 -0.923754 0.869979
 H 1.376489 -0.835354 0.970057
 H 1.643019 0.820675 2.949054
 H 4.075130 -1.039126 3.111166
 H 3.334933 -0.023867 4.468623
 H 1.996640 1.257170 -1.946560