15
charge = 0
 O 3.025628 0.509578 1.145840
 C 2.427302 0.246641 -0.111076
 C 2.848599 -1.110217 -0.581384
 C 1.958237 -1.998724 -1.007892
 C 4.323960 -1.409101 -0.566994
 C 4.759989 -2.056506 0.728451
 O 5.412931 -3.062632 0.776646
 H 2.923245 1.442256 1.347202
 H 2.760605 0.989372 -0.852365
 H 1.333601 0.297527 -0.051568
 H 0.895256 -1.784958 -0.988022
 H 2.261430 -2.964047 -1.398031
 H 4.892098 -0.475417 -0.661315
 H 4.607472 -2.074091 -1.384044
 H 4.433348 -1.534471 1.648053