17
charge = 0
 O 2.561958 -0.471740 -3.397158
 C 2.474569 0.137162 -2.112899
 C 3.001256 -0.818220 -1.055007
 C 4.496417 -0.983031 -0.976806
 C 5.182380 -0.487226 0.048428
 C 5.198120 -1.759774 -2.060828
 O 5.258921 -1.090922 -3.299004
 H 2.241345 0.148294 -4.056798
 H 1.425600 0.365723 -1.890049
 H 3.045570 1.072965 -2.089703
 H 2.525479 -1.792050 -1.223744
 H 2.641958 -0.451808 -0.089301
 H 4.696854 0.052776 0.855567
 H 6.258128 -0.607944 0.116911
 H 4.707306 -2.740251 -2.170561
 H 6.230464 -1.944104 -1.756993
 H 4.346066 -0.921472 -3.578955