17
charge = 0
 O 0.893505 0.000508 -0.117338
 C 2.305040 0.040973 -0.053112
 C 2.854231 -0.529700 -1.339351
 C 4.373085 -0.533016 -1.374097
 C 4.923710 -1.105313 -2.664003
 C 6.418856 -1.132982 -2.752853
 O 7.166713 -0.744734 -1.897667
 H 0.538629 0.363515 0.696970
 H 2.676567 -0.545338 0.800028
 H 2.663141 1.072774 0.076389
 H 2.455832 0.054737 -2.176050
 H 2.468750 -1.548216 -1.459312
 H 4.770173 -1.108343 -0.531682
 H 4.757369 0.483651 -1.243477
 H 4.562329 -0.548865 -3.540536
 H 4.575106 -2.134351 -2.831635
 H 6.820474 -1.554091 -3.701585