17
charge = 0
 O 2.157323 0.955722 -0.757285
 C 2.153775 0.184306 0.432945
 C 2.852772 -1.125430 0.123323
 O 2.180407 -1.788228 -0.926500
 C 4.336872 -0.927003 -0.193986
 C 5.047299 -2.216942 -0.427885
 C 6.132684 -2.613889 0.222195
 H 1.521390 1.668072 -0.672328
 H 1.127476 -0.033046 0.751684
 H 2.672567 0.708189 1.246283
 H 2.762150 -1.773568 1.001353
 H 2.024894 -1.121505 -1.605717
 H 4.814567 -0.380597 0.626100
 H 4.405428 -0.292245 -1.085751
 H 4.610296 -2.862555 -1.185712
 H 6.594327 -1.997560 0.988382
 H 6.603485 -3.567122 0.010808