11
charge = 0
 O 2.619408 0.910514 -0.574076
 C 2.144737 -0.033202 -0.025528
 O 2.832096 -1.039111 0.559193
 C 4.197640 -0.983624 0.526956
 C 4.899531 -1.961874 1.095607
 C 6.311951 -1.977569 1.104748
 C 7.513872 -2.024080 1.131797
 H 1.072488 -0.234820 0.091663
 H 4.624100 -0.123893 0.027213
 H 4.375286 -2.784204 1.573609
 H 8.577401 -2.057298 1.151107