11
charge = 0
 O 1.245321 0.587549 0.543824
 C 2.268489 -0.080292 -0.022367
 O 2.609146 -1.153123 0.378423
 C 2.894578 0.608553 -1.127829
 C 3.441965 1.153027 -2.055987
 C 4.076973 1.799609 -3.142574
 C 5.102455 1.268062 -3.808547
 H 1.117526 1.428187 0.088950
 H 3.688645 2.774315 -3.424643
 H 5.505226 0.297872 -3.543868
 H 5.559776 1.797743 -4.635083