14
charge = 0
 C -0.982330 0.190625 1.024893
 C -1.248043 -0.155474 -0.448546
 N -0.616824 -1.480247 -0.137237
 C 0.278584 -0.631776 0.716390
 C 1.007226 0.239229 -0.328741
 O 0.561983 1.589898 -0.426668
 C -0.113855 0.589065 -1.184155
 H -1.653528 -0.359425 1.679573
 H -0.873005 1.232884 1.307758
 H -2.241412 -0.158333 -0.894539
 H -0.127864 -1.877588 -0.940468
 H 0.872250 -1.129774 1.481412
 H 2.019678 0.037771 -0.660532
 H -0.080361 0.693136 -2.262940