13
charge = 0
 C 2.069931 -0.131732 -0.126562
 C 0.737513 -0.830148 0.084244
 N -0.387369 -1.292504 -0.666014
 C -1.420033 -0.444502 -0.229199
 N -1.372877 0.696659 0.367914
 O -0.109761 1.308800 0.628528
 C 0.777709 0.620061 -0.192485
 H 2.617835 -0.140607 -1.061760
 H 2.688631 -0.171825 0.761589
 H 0.624267 -1.004593 1.153765
 H -0.627742 -2.274611 -0.654339
 H -2.435214 -0.793561 -0.394762
 H 0.548409 0.833452 -1.235110