14
charge = 0
 C -1.636788 0.648200 0.581513
 C -1.066692 -0.351317 -0.342747
 C 0.048943 -1.162008 0.217990
 O 1.219662 -1.120138 -0.588779
 C 1.136782 -0.242264 0.529526
 C 0.714632 1.153908 0.139558
 N -0.648798 1.053697 -0.407254
 H -1.329760 0.598168 1.624270
 H -2.637883 1.029504 0.414562
 H -1.635870 -0.731732 -1.184585
 H -0.128357 -2.091089 0.752029
 H 1.856653 -0.422149 1.322025
 H 1.374926 1.553729 -0.634653
 H 0.735651 1.837781 0.993045