12
charge = 0
 C 2.038665 -0.180189 -0.136189
 C 0.679518 -0.773589 0.137264
 O -0.434315 -1.328038 -0.531378
 C -1.412076 -0.427513 -0.174913
 N -1.357428 0.730952 0.378298
 O -0.114035 1.366258 0.614192
 C 0.768190 0.640382 -0.192098
 H 2.543325 -0.229297 -1.093586
 H 2.693765 -0.233187 0.725264
 H 0.573985 -0.940631 1.206285
 H -2.411497 -0.802533 -0.363197
 H 0.533502 0.825584 -1.240250