16
charge = 0
 C -1.703626 0.654072 0.350893
 N -1.757718 -0.724696 -0.268299
 C -0.274693 -0.772902 0.010730
 C 1.037554 -1.141105 -0.636623
 C 1.888154 0.020326 0.010527
 O 1.005367 1.075092 0.483238
 C -0.223506 0.700380 -0.082479
 H -1.848483 0.566465 1.429182
 H -2.394709 1.386066 -0.068152
 H -1.906822 -0.606750 -1.268418
 H -0.214166 -1.051855 1.069659
 H 1.008844 -1.038848 -1.723733
 H 1.447832 -2.119766 -0.383959
 H 2.586368 0.442074 -0.717246
 H 2.456212 -0.337833 0.871779
 H -0.242707 0.994282 -1.145990