12
charge = 0
 C 1.330663 -0.807454 0.142149
 C 2.560183 0.169035 -0.017437
 C 3.223892 -0.659330 1.058245
 N 4.234092 -0.910380 1.829990
 O 3.795874 -2.025143 2.544062
 C 2.547275 -2.383233 2.163087
 C 2.136801 -1.529178 1.204899
 H 1.102230 -1.394982 -0.748095
 H 0.416742 -0.328533 0.496106
 H 2.360650 1.206740 0.252615
 H 3.046921 0.139073 -0.993019
 H 2.147887 -3.242224 2.679320