11
charge = 0
 C 1.483726 0.452136 -0.551672
 C 2.563798 0.034846 0.529403
 C 3.101446 1.444811 0.396530
 N 3.893631 2.431849 0.652356
 O 3.411433 3.430798 -0.167203
 N 2.323454 3.038528 -0.918556
 C 2.151479 1.811851 -0.553970
 H 0.454015 0.444537 -0.194095
 H 1.545259 -0.094130 -1.492944
 H 3.247665 -0.752167 0.211448
 H 2.155896 -0.212662 1.509505