16
charge = 0
 C -1.722497 0.658695 0.362423
 O -1.709110 -0.660427 -0.263219
 C -0.290321 -0.683921 0.037053
 C 0.973839 -1.087482 -0.674677
 C 1.896232 -0.019907 0.025702
 N 1.028003 1.092877 0.563275
 C -0.240032 0.795077 -0.048636
 H -1.885966 0.576771 1.442844
 H -2.456953 1.317584 -0.101922
 H -0.193658 -0.991128 1.089949
 H 0.910157 -0.917239 -1.751171
 H 1.332102 -2.101242 -0.491445
 H 2.639762 0.359978 -0.679917
 H 2.436173 -0.479958 0.856624
 H 1.402671 1.988896 0.283292
 H -0.275122 1.070227 -1.113865