16
charge = 0
 C 1.726368 -0.106809 -0.029359
 C 0.859249 -1.217202 0.548063
 C -0.395646 -1.470045 -0.276473
 C -1.448426 -0.403074 -0.159259
 N -1.391515 0.831085 0.139247
 O -0.155773 1.430336 0.314665
 C 0.876885 1.023196 -0.574794
 H 2.351656 -0.488604 -0.844686
 H 2.406000 0.271413 0.738815
 H 0.557228 -0.950876 1.564431
 H 1.435771 -2.142791 0.626992
 H -0.869321 -2.400825 0.050172
 H -0.144846 -1.630773 -1.333156
 H -2.479125 -0.728876 -0.292086
 H 1.478726 1.919970 -0.743033
 H 0.419396 0.748887 -1.531829