16
charge = 0
 C -0.143320 -1.274084 -0.457463
 N 1.140156 -1.009893 -1.106703
 C 0.794550 -0.286674 0.106489
 C 1.614512 -0.568197 1.329962
 C 0.958458 -0.263529 2.684195
 C 1.252407 -1.733108 2.986852
 O 1.726599 -1.962254 1.653224
 H -0.212649 -2.251383 0.005561
 H -1.052104 -0.907194 -0.924158
 H 1.014978 -0.421966 -1.922780
 H 0.522862 0.764374 0.012077
 H 2.611299 -0.123559 1.208440
 H -0.102462 -0.022277 2.610794
 H 1.459116 0.472886 3.310755
 H 0.393162 -2.365106 3.230449
 H 2.041327 -1.902535 3.727694