16
charge = 0
 C 0.285859 -1.757486 -1.084703
 C 0.599553 -0.313764 -1.038060
 N 0.176631 -1.017206 0.157962
 C 1.204617 -1.271975 1.130083
 C 1.290486 -0.277064 2.291217
 O 1.149347 -1.328654 3.256136
 C 0.854750 -2.282458 2.226427
 H 1.122719 -2.443354 -1.193484
 H -0.649542 -2.101889 -1.511026
 H -0.103105 0.412988 -1.429776
 H 1.646823 -0.031266 -1.115555
 H 2.181410 -1.469113 0.662660
 H 0.446743 0.421055 2.316761
 H 2.230513 0.268123 2.414360
 H -0.202745 -2.568098 2.220188
 H 1.482442 -3.174739 2.303129