16
charge = 0
 C 1.129991 0.239537 0.751983
 C 0.803434 1.704703 0.774694
 C 0.799080 2.514228 -0.438796
 O -0.413923 2.078229 0.152550
 N 2.503770 0.023735 1.151316
 C 3.081450 -1.246417 0.771978
 C 3.482879 0.000496 0.084265
 H 0.906645 -0.163642 -0.250394
 H 0.481700 -0.280385 1.465482
 H 1.001021 2.204342 1.721739
 H 1.043268 2.047300 -1.390792
 H 0.989276 3.582838 -0.377309
 H 2.456127 -1.939314 0.213288
 H 3.736666 -1.706665 1.503531
 H 3.124354 0.140675 -0.933019
 H 4.436861 0.467049 0.303794