16
charge = 0
 C -0.820337 -0.042552 -1.159724
 C -0.572476 1.056953 -0.118146
 C -1.139746 0.032985 0.865621
 N -0.673163 -1.050663 -0.059374
 C 0.760255 -1.225745 0.193105
 C 1.564818 0.056140 -0.082645
 O 0.807437 1.237643 0.131989
 H -0.136534 -0.144696 -2.004175
 H -1.849090 -0.044534 -1.524685
 H -1.014534 2.049792 -0.223120
 H -2.231138 0.029889 0.921450
 H -0.708567 0.012259 1.868680
 H 1.142973 -2.031132 -0.441843
 H 0.870546 -1.552065 1.230664
 H 1.926423 0.049991 -1.118272
 H 2.442721 0.119725 0.563776