15
charge = 0
 C 1.715533 -0.128395 -0.098076
 C 0.830527 -1.188383 0.533611
 N -0.394462 -1.386641 -0.226578
 C -1.400344 -0.463578 -0.243499
 N -1.405594 0.790535 0.000564
 O -0.164794 1.351679 0.377713
 C 0.882294 1.074269 -0.532136
 H 2.242919 -0.533679 -0.967356
 H 2.472211 0.173163 0.631546
 H 0.593816 -0.908682 1.564997
 H 1.352294 -2.146541 0.568830
 H -0.712934 -2.336668 -0.303153
 H -2.369034 -0.849346 -0.552440
 H 1.498681 1.976488 -0.575771
 H 0.457096 0.914889 -1.528133