15
charge = 0
 C 1.710508 -0.082163 -0.019589
 C 0.771363 -1.183145 0.459815
 N -0.366665 -1.342849 -0.432968
 N -1.448404 -0.514260 -0.203190
 C -1.293575 0.709004 0.081853
 O -0.171309 1.462008 0.183055
 C 0.931139 1.061705 -0.630670
 H 2.396424 -0.467302 -0.780053
 H 2.316960 0.271877 0.818709
 H 0.424385 -0.961488 1.478891
 H 1.300390 -2.138378 0.499752
 H -0.724201 -2.285122 -0.407236
 H -2.184843 1.291910 0.289467
 H 1.551761 1.952810 -0.736831
 H 0.556265 0.785473 -1.619604