15
charge = 0
 C 0.761110 -1.180967 0.432735
 C 1.692284 -0.073572 -0.024357
 O 1.009785 1.076644 -0.457945
 C -0.068070 1.461535 0.350707
 C -1.322979 0.646012 0.135009
 N -1.458116 -0.555726 -0.258464
 N -0.369016 -1.347160 -0.460373
 H 0.400597 -0.985971 1.453871
 H 1.322033 -2.118997 0.464046
 H 2.277687 -0.404246 -0.884970
 H 2.389242 0.171429 0.792358
 H -0.299931 2.493164 0.071356
 H 0.210795 1.485744 1.416656
 H -2.260015 1.184053 0.267087
 H -0.688517 -2.300932 -0.516696