15
charge = 0
 C 1.700655 -0.120734 -0.043466
 C 0.718000 -1.138049 0.494915
 O -0.395814 -1.373365 -0.349597
 N -1.490910 -0.558340 -0.151096
 C -1.317867 0.650078 0.197497
 C -0.078256 1.494934 0.354144
 N 1.004118 1.063161 -0.493159
 H 2.248269 -0.544199 -0.890557
 H 2.433062 0.072119 0.760835
 H 0.347090 -0.845119 1.483909
 H 1.213251 -2.106024 0.602063
 H -2.264129 1.163921 0.358016
 H 0.176771 1.571689 1.428594
 H -0.362502 2.505240 0.047623
 H 1.643472 1.821090 -0.681222