13
charge = 0
 C 1.606202 -0.139148 0.220459
 N 0.892143 -1.434978 0.172750
 C -0.227717 -0.826508 -0.562565
 C -1.313504 -0.177899 0.243516
 N -1.232832 1.087506 0.331490
 O -0.140622 1.547214 -0.380326
 C 0.622363 0.427600 -0.814799
 H 2.655529 -0.208605 -0.075038
 H 1.531791 0.404980 1.167152
 H 0.656540 -1.838099 1.071600
 H -0.611551 -1.438502 -1.383674
 H -2.146420 -0.678261 0.722604
 H 1.006069 0.634909 -1.811361