12
charge = 0
 C 1.419561 -0.705320 -0.477547
 N 2.026735 0.610498 -0.059285
 C 3.011511 0.423985 -1.070700
 C 4.070124 0.768592 -1.833866
 O 4.160302 -0.173571 -2.832069
 C 3.158399 -1.085233 -2.685695
 C 2.439567 -0.749900 -1.597132
 H 0.372953 -0.604196 -0.768568
 H 1.524038 -1.498370 0.266627
 H 2.357542 0.657789 0.896325
 H 4.823087 1.536802 -1.846059
 H 3.137381 -1.868656 -3.424841