16
charge = 0
 C -1.783520 0.629683 0.280455
 N -1.748130 -0.752126 -0.321649
 C -0.291271 -0.730850 0.032591
 C 1.040884 -1.050120 -0.589864
 O 1.858132 -0.020347 0.011910
 C 1.066913 1.052142 0.591903
 C -0.276187 0.769776 -0.021562
 H -2.017966 0.548845 1.344178
 H -2.468995 1.331418 -0.195916
 H -1.842002 -0.645703 -1.329951
 H -0.250366 -1.057346 1.079658
 H 1.038633 -0.947364 -1.682338
 H 1.477537 -2.012728 -0.316975
 H 1.535495 1.994205 0.301426
 H 1.073790 0.965021 1.684187
 H -0.215348 1.048884 -1.081744