16
charge = 0
 C -1.188929 0.000992 1.021839
 C -0.641347 -0.994107 0.000528
 C 0.853192 -1.223834 0.230239
 N 1.614780 -0.001743 -0.015455
 C 0.856234 1.221882 0.232009
 C -0.638872 0.996204 0.001970
 O -0.783532 0.001983 -1.042764
 H -0.761114 -0.000267 2.026088
 H -2.277795 0.002313 1.065481
 H -1.198736 -1.909647 -0.208941
 H 1.232605 -1.999764 -0.438741
 H 1.008395 -1.579976 1.256771
 H 1.866604 -0.001346 -0.992768
 H 1.237577 1.997833 -0.435848
 H 1.012321 1.576150 1.259056
 H -1.193983 1.913429 -0.206174