16
charge = 0
 C -1.789506 0.632644 0.287723
 O -1.717973 -0.691336 -0.318555
 C -0.320051 -0.686505 0.041697
 C 0.956094 -1.056500 -0.669379
 N 1.844831 -0.056002 -0.002616
 C 1.064564 1.080921 0.588478
 C -0.290842 0.805998 -0.013364
 H -2.037112 0.555357 1.352886
 H -2.500282 1.278399 -0.229018
 H -0.244320 -1.039672 1.082447
 H 0.866534 -0.910386 -1.752154
 H 1.322703 -2.066360 -0.472325
 H 2.547344 0.281605 -0.642261
 H 1.511112 2.036576 0.306704
 H 1.069166 1.010105 1.680777
 H -0.244562 1.072457 -1.075138