12
charge = 0
 C 1.631393 -0.294393 0.121527
 O 0.842917 -1.502320 0.054344
 C -0.188293 -0.825420 -0.675023
 C -1.326073 -0.346304 0.172401
 N -1.254698 0.881154 0.492028
 O -0.134700 1.465166 -0.070892
 C 0.623561 0.466189 -0.740643
 H 2.623357 -0.442715 -0.312905
 H 1.719446 0.092923 1.140272
 H -0.485083 -1.374048 -1.571888
 H -2.164561 -0.933798 0.522534
 H 0.965034 0.865744 -1.693234