16
charge = 0
 C -1.201398 -0.000694 1.004591
 C -0.621750 -1.017722 0.007377
 C 0.859448 -1.194740 0.285057
 O 1.441660 0.000641 0.770019
 C 0.858280 1.195623 0.285478
 C -0.622745 1.017256 0.007738
 N -0.827984 -0.000146 -1.048551
 H -0.810675 -0.000683 2.021415
 H -2.289685 -0.001225 0.996301
 H -1.126794 -1.974478 -0.149814
 H 1.364687 -1.527409 -0.636149
 H 1.033466 -1.951750 1.056019
 H 1.363193 1.529111 -0.635611
 H 1.031558 1.952531 1.056707
 H -1.128725 1.973573 -0.149113
 H -0.108716 0.000333 -1.769354