14
charge = 0
 C 0.683019 -1.210846 0.500377
 O -0.579958 -1.505185 -0.082752
 C -1.523094 -0.542941 -0.084419
 C -1.299624 0.761438 0.059643
 C 0.080186 1.249109 0.205399
 N 1.014856 0.880320 -0.885457
 C 1.118647 0.223872 0.405727
 H 1.395043 -1.874423 0.004132
 H 0.642984 -1.481503 1.563668
 H -2.508794 -0.960454 -0.255169
 H -2.130675 1.451831 0.008714
 H 0.223597 2.217458 0.673134
 H 1.738666 1.586149 -0.978156
 H 1.962757 0.462575 1.048949