13
charge = 0
 C 1.062695 -1.086955 0.872109
 C 1.114797 -0.332359 -0.407941
 C 0.872680 1.148816 -0.425705
 O -0.474930 1.443780 -0.810404
 C -1.378007 0.698163 -0.150279
 N -1.214474 -0.467072 0.326965
 N -0.051369 -1.137681 -0.047272
 H 0.925692 -0.507070 1.780129
 H 1.619158 -2.010943 0.981282
 H 1.681678 -0.740574 -1.237642
 H 1.508256 1.648330 -1.154595
 H 1.043121 1.598281 0.557113
 H -2.336398 1.191884 -0.027550