14
charge = 0
 C 0.841747 -1.096796 0.916643
 C 1.137653 -0.385451 -0.351014
 C 0.836177 1.081117 -0.449221
 O -0.284541 1.458575 0.338813
 N -1.471894 0.791596 0.047908
 C -1.354645 -0.445911 -0.228182
 C -0.108225 -1.219490 -0.260412
 H 0.502889 -0.513946 1.763485
 H 1.422687 -1.977306 1.158996
 H 1.944996 -0.749826 -0.977392
 H 0.650290 1.351892 -1.497750
 H 1.653234 1.696969 -0.068248
 H -2.299030 -0.939956 -0.440406
 H -0.149338 -2.175376 -0.766921