13
charge = 0
 C 0.667856 -1.184824 0.507356
 O -0.532799 -1.430817 -0.212765
 N -1.567242 -0.535003 -0.064606
 C -1.263691 0.686051 0.124024
 C 0.102398 1.226508 0.205532
 N 1.000748 0.849541 -0.908512
 C 1.165423 0.223401 0.385939
 H 1.377028 -1.908131 0.100180
 H 0.507449 -1.407531 1.571721
 H -2.119506 1.348490 0.214982
 H 0.215663 2.212618 0.641000
 H 1.692878 1.579903 -1.040575
 H 2.024495 0.478404 1.001115