14
charge = 0
 C 1.003993 1.157400 -0.086306
 O -0.233945 1.180310 0.586792
 N -1.272502 0.791911 -0.291974
 C -1.391739 -0.467796 -0.336740
 C -0.521488 -1.462062 0.369260
 C 0.926045 -1.350941 -0.033435
 C 1.574482 -0.214545 -0.254264
 H 1.678219 1.761792 0.529409
 H 0.913143 1.665324 -1.058196
 H -2.203924 -0.813753 -0.974102
 H -0.885317 -2.468724 0.158207
 H -0.624231 -1.306058 1.450180
 H 1.460742 -2.287675 -0.156105
 H 2.615522 -0.254173 -0.566039