12
charge = 0
 C 1.021120 1.156622 -0.274458
 O -0.159185 1.406964 0.466978
 N -1.309608 0.813626 -0.036558
 C -1.370069 -0.450553 -0.062399
 O -0.495542 -1.428341 0.242634
 C 0.863901 -1.300548 0.179134
 C 1.571047 -0.213476 -0.079799
 H 1.737629 1.898567 0.086929
 H 0.834512 1.370901 -1.334061
 H -2.325016 -0.868646 -0.364101
 H 1.319721 -2.265648 0.355899
 H 2.647500 -0.337957 -0.114598