14
charge = 0
 C 1.451339 -0.028561 0.442226
 C 2.796839 -0.144188 -0.190364
 C 3.529843 0.994209 -0.802922
 C 4.127134 0.270743 0.390686
 C 4.952851 -0.882173 0.016745
 N 4.339141 -1.770995 -0.662629
 O 3.014478 -1.403072 -0.797155
 H 1.337257 0.948597 0.914205
 H 1.310877 -0.803896 1.197738
 H 0.667748 -0.134553 -0.311577
 H 3.131885 1.982066 -0.607717
 H 4.001788 0.857700 -1.768218
 H 4.260807 0.783176 1.334818
 H 5.996224 -1.039154 0.258076