16
charge = 0
 C 1.486190 0.090967 -0.326577
 C 2.885432 -0.218436 0.100066
 C 3.215228 -1.572517 0.679822
 O 4.617272 -1.719750 0.582732
 C 5.111006 -0.895117 -0.457408
 C 4.103572 0.207167 -0.610986
 N 3.749039 0.818565 0.674184
 H 1.103813 -0.674146 -1.007217
 H 1.437067 1.053903 -0.840793
 H 0.814190 0.136634 0.535542
 H 2.691045 -2.351872 0.105054
 H 2.942382 -1.668692 1.734529
 H 5.199525 -1.452130 -1.402367
 H 6.102802 -0.545924 -0.158610
 H 4.063576 0.792365 -1.523173
 H 3.328153 1.727663 0.505803