16
charge = 0
 C 1.227269 -0.068717 0.107960
 C 2.691901 0.063146 -0.189801
 C 3.284357 -0.566364 -1.405262
 C 3.158490 0.926603 -1.344899
 C 4.342317 1.782766 -1.186534
 N 5.503741 1.289494 -1.072549
 O 6.460059 2.272510 -0.868633
 H 1.017724 -1.001981 0.638240
 H 0.641291 -0.074770 -0.815039
 H 0.867328 0.756545 0.728142
 H 3.345649 0.098785 0.676201
 H 2.614950 -1.089479 -2.078295
 H 4.285668 -0.971113 -1.340802
 H 2.362328 1.376908 -1.929057
 H 4.203382 2.865186 -1.139143
 H 7.278757 1.771282 -0.828032