16
charge = 0
 C 0.917044 -0.010095 -0.128440
 C 2.408711 -0.062732 0.032593
 C 3.242931 -0.906820 -0.865607
 C 3.292999 0.594520 -0.998899
 C 4.481840 1.404733 -0.614825
 N 5.248098 0.937044 0.409297
 O 4.736964 2.453090 -1.172506
 H 0.434199 -0.824915 0.417723
 H 0.636352 -0.102073 -1.180653
 H 0.511616 0.933575 0.244514
 H 2.760017 0.032524 1.055688
 H 2.745028 -1.447064 -1.662203
 H 4.110537 -1.418997 -0.466086
 H 2.792501 1.025298 -1.857067
 H 5.141876 0.013386 0.784769
 H 6.086077 1.448029 0.624781