18
charge = 0
 C 0.969469 0.212745 -0.130024
 C 2.468179 0.156082 -0.037097
 C 3.261143 -0.728092 -0.962294
 C 3.366903 0.767521 -1.068477
 N 2.795436 1.512689 -2.160022
 C 4.645416 1.419144 -0.602487
 O 4.444679 2.778082 -0.312554
 H 0.518583 -0.570140 0.485117
 H 0.614034 0.052398 -1.151389
 H 0.581107 1.173361 0.220276
 H 2.847667 0.232482 0.977567
 H 2.708201 -1.242115 -1.741202
 H 4.105737 -1.281997 -0.567516
 H 1.786235 1.492726 -2.161089
 H 3.124080 1.183822 -3.058719
 H 5.416603 1.294869 -1.381018
 H 5.013850 0.931766 0.304312
 H 3.860687 3.090559 -1.018105