16
charge = 0
 C 0.872525 0.234084 -0.207069
 C 2.347418 -0.000381 -0.055096
 C 3.095769 -0.837421 -1.044046
 C 3.315705 0.645665 -1.002331
 N 4.560889 1.131439 -0.512466
 C 4.683877 2.118162 0.407174
 O 5.729174 2.622046 0.743294
 H 0.299015 -0.596408 0.212244
 H 0.596242 0.326361 -1.260497
 H 0.559515 1.149484 0.301946
 H 2.703764 -0.077245 0.966901
 H 2.553500 -1.237874 -1.892045
 H 3.898172 -1.463892 -0.674745
 H 2.874979 1.217276 -1.816550
 H 5.411595 0.863588 -0.985581
 H 3.708061 2.411815 0.838368