14
charge = 0
 C 1.033702 -0.011506 -0.003482
 C 2.509054 0.128902 0.014693
 C 3.332048 1.229544 -0.061413
 C 4.674765 0.786180 0.015878
 C 4.652934 -0.579433 0.138547
 N 3.341237 -0.947442 0.123111
 O 2.906925 -2.231138 0.302569
 H 0.576833 0.977236 -0.037400
 H 0.665899 -0.529209 0.886449
 H 0.680377 -0.571915 -0.875155
 H 2.991959 2.249082 -0.159960
 H 5.562003 1.398923 -0.009184
 H 5.431555 -1.315962 0.245957
 H 2.829619 -2.610073 -0.582230