16
charge = 0
 C 0.951403 -0.105946 0.060872
 C 2.464842 -0.135909 -0.021614
 C 3.116354 0.005774 1.339845
 C 2.996118 -1.338764 -0.815906
 C 3.636913 -0.647542 -1.970387
 N 3.552747 0.618145 -1.937976
 O 2.875529 1.018419 -0.817706
 H 0.583172 -0.944352 0.657911
 H 0.514005 -0.169990 -0.937537
 H 0.613342 0.822742 0.524633
 H 2.835750 -0.828656 1.987889
 H 2.801793 0.935230 1.818352
 H 4.203770 0.020988 1.242134
 H 2.199402 -2.016036 -1.138346
 H 3.717203 -1.933682 -0.247106
 H 4.147966 -1.117931 -2.800779