14
charge = 0
 C 0.898993 -0.095073 -0.067969
 C 2.365903 0.089968 -0.061058
 C 3.174497 1.178157 -0.057998
 C 4.485482 0.634751 -0.051279
 C 5.787045 1.359743 -0.045564
 N 4.450358 -0.669988 -0.050464
 O 3.117211 -1.015503 -0.056609
 H 0.398224 0.872174 -0.071115
 H 0.574289 -0.654162 0.812930
 H 0.582770 -0.655509 -0.951094
 H 2.884684 2.215989 -0.060179
 H 5.626980 2.437711 -0.047219
 H 6.379951 1.097500 -0.923570
 H 6.371412 1.098941 0.838576