14
charge = 0
 C 1.069131 0.013109 -0.028203
 C 2.541766 -0.128798 -0.101230
 C 3.307200 -1.223972 -0.118126
 C 4.742584 -0.814804 -0.200561
 C 4.682403 0.707812 -0.228850
 O 5.591374 1.498600 -0.292026
 N 3.345131 1.017086 -0.166259
 H 0.596185 -0.967167 0.016264
 H 0.680148 0.544354 -0.902570
 H 0.770990 0.580438 0.859095
 H 2.942269 -2.238903 -0.078394
 H 5.257728 -1.169440 -1.098889
 H 5.348077 -1.133298 0.653882
 H 3.010033 1.965083 -0.168543