16
charge = 0
 C 0.963432 0.013997 0.148521
 C 2.452293 0.117509 -0.119724
 C 2.762090 0.116343 -1.604113
 C 3.189829 1.211730 0.701040
 C 3.926204 0.057249 1.389243
 O 4.763425 -0.045025 2.242322
 N 3.249288 -0.857059 0.641281
 H 0.430999 0.851219 -0.309552
 H 0.760061 0.019100 1.221275
 H 0.555285 -0.909246 -0.272575
 H 2.269024 0.955802 -2.100551
 H 2.405530 -0.803967 -2.075469
 H 3.837333 0.194210 -1.777252
 H 2.560597 1.798691 1.370421
 H 3.838800 1.871522 0.124814
 H 3.289011 -1.864887 0.623108