18
charge = 0
 C 1.106541 -0.126724 0.417554
 C 2.488097 0.025713 -0.175341
 C 3.291989 1.241630 0.328215
 C 4.187315 0.240822 1.077642
 C 5.668990 0.266205 0.774326
 O 6.269929 -0.956290 1.126963
 N 3.515392 -0.883188 0.388034
 H 0.425558 0.626893 0.012376
 H 1.130406 -0.011899 1.505582
 H 0.688562 -1.110891 0.185898
 H 2.427633 -0.058537 -1.265482
 H 2.733300 1.946099 0.944848
 H 3.814268 1.792877 -0.455598
 H 4.037260 0.238474 2.163246
 H 6.171039 1.051801 1.346093
 H 5.812355 0.479495 -0.295553
 H 5.777126 -1.631213 0.644632
 H 3.132220 -1.584569 1.009766