16
charge = 0
 C 0.850904 -0.029021 0.147207
 C 2.301238 0.151037 -0.178660
 C 3.029630 -0.570342 -1.228917
 C 2.437274 -1.600339 -2.140143
 N 2.612944 0.830059 -1.454393
 C 3.671021 1.757121 -1.356939
 O 3.736876 2.758430 -1.999579
 H 0.728107 -0.798331 0.914135
 H 0.276821 -0.318178 -0.732032
 H 0.429644 0.902521 0.531391
 H 2.917877 0.459700 0.666363
 H 4.093303 -0.704466 -1.028443
 H 1.380655 -1.410646 -2.324026
 H 2.543396 -2.597213 -1.704163
 H 2.951524 -1.595563 -3.103655
 H 4.465298 1.482420 -0.621548