12
charge = 0
 C 1.112415 -0.000226 -0.105991
 C 2.424932 -0.108913 0.099493
 C 3.285833 -1.266820 0.245504
 C 4.536413 -0.814258 0.435696
 N 4.576271 0.573860 0.427574
 C 3.316105 1.099935 0.225638
 O 3.032902 2.271743 0.169526
 H 0.470908 -0.868772 -0.196888
 H 0.663589 0.983351 -0.186087
 H 2.982748 -2.300892 0.209010
 H 5.445742 -1.378240 0.583260
 H 5.394741 1.142521 0.549285