14
charge = 0
 C 0.917074 -0.010938 0.025714
 C 2.393227 -0.107539 -0.040959
 C 3.192533 -1.173228 -0.084127
 C 4.628309 -0.761465 -0.145018
 N 4.533623 0.668841 -0.130816
 C 3.245564 1.118991 -0.070705
 O 2.881598 2.274699 -0.046173
 H 0.448401 -0.995464 0.038948
 H 0.533919 0.554103 -0.828066
 H 0.611876 0.540394 0.918982
 H 2.889522 -2.212465 -0.077857
 H 5.115867 -1.136443 -1.054631
 H 5.194360 -1.148822 0.712459
 H 5.315826 1.297336 -0.161162