18
charge = 0
 C 0.893206 0.023657 -0.190937
 C 2.371427 -0.091466 0.062884
 C 2.761090 -0.101982 1.516590
 C 3.221889 -0.925123 -0.889747
 N 2.734711 -1.646605 -2.026379
 C 3.299716 0.566205 -0.914204
 O 4.418142 1.235312 -0.427518
 H 0.351237 -0.801071 0.283088
 H 0.653970 0.005157 -1.256303
 H 0.500951 0.957573 0.221701
 H 2.302405 -0.952903 2.029440
 H 2.426980 0.811297 2.018118
 H 3.842480 -0.165031 1.640645
 H 4.069059 -1.403964 -0.403893
 H 2.270535 -1.039627 -2.687305
 H 2.079997 -2.371522 -1.760359
 H 2.819048 1.054587 -1.764736
 H 5.159035 1.044817 -1.009174