16
charge = 0
 C 1.059668 -0.056991 -0.010643
 C 2.571867 0.004455 0.008981
 C 3.195002 1.148050 0.806643
 C 4.546665 0.593546 1.263908
 N 4.280720 -0.823337 1.346155
 C 3.208409 -1.239474 0.622072
 O 2.845557 -2.385098 0.481062
 H 0.635812 0.796110 -0.545193
 H 0.658502 -0.054583 1.006297
 H 0.726985 -0.974612 -0.498229
 H 2.944306 0.033109 -1.024396
 H 2.572733 1.358003 1.681779
 H 3.296298 2.073314 0.238507
 H 4.858818 0.998399 2.229247
 H 5.337387 0.813727 0.534712
 H 4.929160 -1.493718 1.723307