18
charge = 0
 C 0.682505 -0.189029 -1.016766
 C 2.060482 -0.277645 -0.424641
 C 2.177688 -0.074078 1.063907
 C 1.507212 -1.159312 1.889840
 N 1.678092 -0.884346 3.307490
 C 3.097714 -1.033788 -1.126276
 O 3.071069 0.382759 -1.186016
 H 0.034189 -0.979654 -0.631424
 H 0.729465 -0.279620 -2.102658
 H 0.224031 0.772842 -0.771210
 H 1.747485 0.895532 1.336080
 H 3.242874 -0.028234 1.314667
 H 1.898102 -2.140993 1.575282
 H 0.432801 -1.169494 1.682303
 H 2.659650 -0.912749 3.556858
 H 1.210906 -1.585079 3.868624
 H 2.857108 -1.543750 -2.056843
 H 3.926848 -1.459652 -0.564317