14
charge = 0
 C 0.883406 -0.021117 -0.078805
 C 2.374228 -0.005455 -0.106276
 C 3.176069 1.107151 -0.216586
 N 4.467589 0.676221 -0.201537
 O 5.552839 1.492745 -0.351775
 C 4.535299 -0.674730 -0.099797
 C 3.239929 -1.127849 -0.032225
 H 0.477815 0.989398 -0.154609
 H 0.503368 -0.461963 0.847150
 H 0.473448 -0.605211 -0.907585
 H 2.943710 2.155146 -0.314902
 H 5.804349 1.761021 0.541122
 H 5.485285 -1.182932 -0.093482
 H 2.942846 -2.162095 0.054907