14
charge = 0
 C 1.058549 -0.007383 0.018845
 C 2.541711 0.062323 0.013420
 C 3.256164 1.183858 0.022491
 C 4.702712 1.094798 0.015499
 N 5.373607 0.011459 0.001209
 O 4.695876 -1.176707 -0.008582
 C 3.261179 -1.245409 -0.003675
 H 0.610073 0.986348 0.031371
 H 0.699393 -0.563264 0.892262
 H 0.692089 -0.544430 -0.863280
 H 2.784804 2.159762 0.034947
 H 5.315450 1.989873 0.022474
 H 2.970652 -1.841412 0.873442
 H 2.963623 -1.822217 -0.891214