14
charge = 0
 C 0.828787 -0.157807 -0.030168
 C 2.316532 -0.108662 -0.030617
 C 3.116330 0.995311 -0.033221
 N 2.860358 2.333823 -0.036048
 O 4.420508 0.661109 -0.032746
 C 4.479310 -0.707701 -0.029730
 C 3.231340 -1.214914 -0.028396
 H 0.392415 0.844177 -0.031792
 H 0.437320 -0.674311 0.851840
 H 0.436848 -0.677405 -0.910150
 H 1.920225 2.671181 -0.037600
 H 3.617634 2.987344 -0.038288
 H 5.467033 -1.133991 -0.028953
 H 2.972460 -2.263055 -0.026041