18
charge = 0
 C 0.791855 -0.042447 -0.011134
 C 2.299695 -0.033425 -0.049525
 C 3.079497 1.029231 0.752509
 C 4.146923 -0.037037 1.060477
 O 5.146592 -0.109013 0.063680
 C 3.085499 -1.105322 0.757431
 N 3.556609 -2.344919 0.213095
 H 0.369239 0.832480 -0.513418
 H 0.426408 -0.040754 1.020832
 H 0.386427 -0.930358 -0.506106
 H 2.661457 -0.041340 -1.082041
 H 2.541918 1.329282 1.656371
 H 3.419127 1.923854 0.226438
 H 4.596000 -0.045635 2.059916
 H 5.704838 0.668197 0.138770
 H 2.531705 -1.307579 1.682169
 H 4.171170 -2.167349 -0.571708
 H 2.791631 -2.926867 -0.102577