16
charge = 0
 C 0.984785 0.065450 -0.031373
 C 2.488176 0.063487 0.104315
 C 3.079739 1.270603 0.835368
 C 4.364408 0.729588 1.434250
 O 5.264406 1.363567 1.911746
 C 4.301122 -0.788658 1.303388
 N 2.962199 -1.114979 0.843105
 H 0.645779 0.917733 -0.623490
 H 0.507862 0.132287 0.952178
 H 0.640920 -0.849701 -0.517742
 H 2.934109 0.011218 -0.897846
 H 2.426181 1.574123 1.663558
 H 3.271680 2.153915 0.224683
 H 4.562376 -1.280720 2.241346
 H 5.052554 -1.090267 0.561474
 H 2.355696 -1.260056 1.643062