12
charge = 0
 C 0.971085 0.124032 -0.043265
 C 2.445638 0.004519 -0.043488
 C 3.243791 -1.061462 -0.042318
 C 4.649363 -0.549781 -0.043832
 O 5.660220 -1.184498 -0.042497
 N 4.612917 0.902813 -0.044550
 C 3.373367 1.187874 -0.044899
 H 0.484989 -0.851101 -0.042032
 H 0.629506 0.681661 -0.921406
 H 0.629962 0.683650 0.833785
 H 2.989854 -2.110780 -0.040860
 H 3.023717 2.218773 -0.045747