13
charge = 0
 C 0.942250 0.037284 0.080830
 C 2.423933 0.123399 0.077571
 C 3.248420 1.208377 0.077442
 C 4.623991 0.752031 0.073569
 O 5.692796 1.336229 0.072073
 N 4.494854 -0.634217 0.071634
 N 3.178310 -0.998135 0.074051
 H 0.513781 1.038028 0.083174
 H 0.576501 -0.491476 0.965286
 H 0.572463 -0.489064 -0.803383
 H 2.948455 2.242513 0.079792
 H 5.235333 -1.311081 0.068840
 H 2.890323 -1.956787 0.073122