12
charge = 0
 C 1.063127 -0.015568 -0.039773
 C 2.544282 0.074928 -0.036330
 C 3.369125 1.158469 -0.033745
 C 4.721859 0.687796 -0.030953
 O 5.802521 1.201363 -0.028147
 O 4.627342 -0.731988 -0.032073
 N 3.297961 -1.031073 -0.035269
 H 0.629203 0.982552 -0.040487
 H 0.701886 -0.547982 0.843627
 H 0.705952 -0.547487 -0.925120
 H 3.084772 2.195960 -0.033735
 H 3.066471 -2.006000 -0.036594