18
charge = 0
 C 0.835689 0.663836 -0.570220
 C 2.107247 0.016950 -0.112748
 C 2.790341 -1.028861 -0.902085
 N 3.325906 0.318073 -0.848631
 C 4.538178 0.489350 -0.071088
 C 4.837934 1.961339 0.120988
 O 3.801078 2.647017 0.788048
 H -0.032858 0.085767 -0.243985
 H 0.814183 0.736259 -1.658988
 H 0.732308 1.672784 -0.158946
 H 2.225086 -0.065767 0.966897
 H 2.386091 -1.337181 -1.861296
 H 3.323696 -1.804579 -0.357516
 H 5.369060 0.031148 -0.618962
 H 4.468397 -0.009575 0.909710
 H 5.040488 2.417458 -0.856897
 H 5.733096 2.076005 0.737143
 H 3.033187 2.626958 0.210065