16
charge = 0
 C 1.138860 -0.224982 -0.973800
 C 2.400832 0.276256 -0.342158
 C 3.419836 -0.636783 0.250863
 N 3.655056 0.004698 -1.011998
 C 4.668700 0.941596 -1.173921
 C 4.363897 2.008275 -2.189885
 O 5.731984 0.848067 -0.610157
 H 0.344305 -0.310720 -0.228372
 H 1.301583 -1.205986 -1.423636
 H 0.794409 0.455088 -1.757051
 H 2.329878 1.252346 0.136222
 H 3.254359 -1.708609 0.211036
 H 4.007113 -0.284209 1.092642
 H 3.332745 2.357835 -2.117066
 H 4.496699 1.587355 -3.189918
 H 5.056143 2.838174 -2.063800