15
charge = 0
 C 1.171239 0.486217 -0.032192
 C 2.557907 -0.072314 0.078602
 C 3.134933 -0.884610 -1.027146
 N 3.653147 0.430841 -0.724657
 C 3.555906 1.480955 -1.612991
 N 3.053682 2.598760 -1.280010
 O 3.189104 3.521122 -2.318294
 H 0.460372 -0.218368 0.407079
 H 0.889542 0.658711 -1.071404
 H 1.088878 1.437735 0.495794
 H 2.869228 -0.326409 1.089025
 H 2.520115 -0.995671 -1.917017
 H 3.804806 -1.712486 -0.819006
 H 4.017356 1.327939 -2.589751
 H 2.801586 4.315588 -1.943633