15
charge = 0
 C 0.843551 0.443991 -0.333867
 C 2.082596 -0.343384 -0.045717
 C 2.843476 -1.047710 -1.089333
 N 3.346479 0.217885 -0.544942
 N 4.427886 0.004938 0.344269
 C 4.564667 0.786792 1.447059
 O 5.589286 0.896746 2.076565
 H -0.036676 -0.202078 -0.290943
 H 0.895052 0.890644 -1.327907
 H 0.711007 1.247749 0.394491
 H 2.149898 -0.789692 0.942657
 H 2.535720 -0.990749 -2.127101
 H 3.374897 -1.948245 -0.801160
 H 5.288611 -0.260024 -0.115187
 H 3.618141 1.282037 1.731807