18
charge = 0
 C 0.956088 0.037683 0.014078
 C 2.463245 0.021533 -0.019041
 C 3.245172 1.079649 0.779005
 N 4.202217 0.034649 1.179009
 C 3.230884 -1.012556 0.829067
 C 3.828129 -2.223979 0.152225
 O 2.843462 -3.131535 -0.299472
 H 0.558297 0.911085 -0.510489
 H 0.583876 0.070563 1.042344
 H 0.546018 -0.854317 -0.465889
 H 2.823502 -0.019919 -1.050897
 H 2.644338 1.476780 1.608869
 H 3.685613 1.916831 0.230667
 H 4.503175 0.057071 2.144476
 H 2.610621 -1.337363 1.683441
 H 4.545371 -2.711671 0.829003
 H 4.384075 -1.903087 -0.731395
 H 2.376619 -3.477818 0.465319