18
charge = 0
 C 1.746972 1.286214 0.866812
 C 2.744658 0.259115 0.406454
 C 2.291807 -1.165813 0.584845
 N 4.147220 0.570003 0.695634
 C 3.697008 0.532228 -0.694925
 C 3.772146 1.819885 -1.452937
 O 2.881332 1.735523 -2.549354
 H 0.833613 1.233521 0.268717
 H 2.150093 2.295646 0.798747
 H 1.480142 1.106904 1.912444
 H 1.355159 -1.346745 0.050878
 H 2.120007 -1.388009 1.642779
 H 3.036087 -1.869729 0.203298
 H 4.663065 -0.272701 0.925319
 H 3.976646 -0.334223 -1.291823
 H 4.806304 1.968684 -1.795355
 H 3.523494 2.656245 -0.790219
 H 2.991438 2.519252 -3.091714