16
charge = 0
 C 1.031449 0.074432 0.212487
 C 2.501957 0.042299 -0.126605
 C 3.387538 1.130817 0.533560
 N 4.158004 0.064258 1.153386
 C 3.360259 -1.018645 0.607581
 C 5.212068 0.042662 1.979904
 O 5.718672 -0.964444 2.425810
 H 0.543060 0.948281 -0.226632
 H 0.880380 0.113245 1.295036
 H 0.521821 -0.816028 -0.164321
 H 2.644505 0.005095 -1.207791
 H 2.857357 1.770072 1.247645
 H 3.959041 1.759351 -0.155228
 H 2.829467 -1.595696 1.371338
 H 3.926386 -1.707613 -0.024036
 H 5.581445 1.061015 2.215375