16
charge = 0
 C 1.025638 -0.089493 0.014591
 C 2.536159 -0.044835 0.083994
 C 3.167141 1.041547 0.945283
 N 4.507881 0.521921 1.190121
 C 4.361818 -0.890098 1.486640
 C 3.161833 -1.307079 0.656272
 O 2.764768 -2.429728 0.507750
 H 0.625831 0.794951 -0.485795
 H 0.589495 -0.139278 1.015525
 H 0.699187 -0.974187 -0.534088
 H 2.957188 0.041781 -0.927557
 H 2.570650 1.163859 1.866596
 H 3.215376 2.011169 0.445640
 H 4.996841 1.029089 1.913468
 H 4.112436 -1.117294 2.537712
 H 5.245366 -1.475526 1.221648