18
charge = 0
 C 0.858601 0.061441 0.102293
 C 2.365763 0.002111 -0.086971
 C 2.876803 -1.388734 -0.457974
 N 2.589124 -1.774633 -1.828776
 C 3.030467 -0.740204 -2.750628
 C 2.507473 0.633085 -2.375552
 O 2.823816 0.956943 -1.038115
 H 0.565184 -0.549282 0.959682
 H 0.311192 -0.307089 -0.768707
 H 0.542489 1.089284 0.289075
 H 2.841539 0.308576 0.850248
 H 2.463686 -2.138567 0.222875
 H 3.965323 -1.400819 -0.333976
 H 1.596629 -1.942421 -1.946902
 H 2.721477 -1.000720 -3.767111
 H 4.126511 -0.722612 -2.735181
 H 1.419722 0.677053 -2.539357
 H 2.964892 1.413297 -2.989714