16
charge = 0
 C 1.042675 -0.013187 0.106577
 C 2.354641 -0.080732 -0.085835
 C 3.160613 -1.347842 -0.085787
 N 4.154087 -1.411293 -1.149394
 C 4.942764 -0.191607 -1.153963
 C 4.078157 1.048167 -1.231250
 O 3.080737 1.069504 -0.216657
 H 0.469748 -0.913880 0.282580
 H 0.531198 0.940907 0.125021
 H 2.498119 -2.212377 -0.145439
 H 3.699995 -1.413618 0.868271
 H 3.681671 -1.511068 -2.042107
 H 5.643589 -0.208958 -1.993431
 H 5.536191 -0.169722 -0.232848
 H 3.585091 1.100666 -2.213239
 H 4.663343 1.959730 -1.093198