18
charge = 0
 C 1.012561 -0.195585 0.131618
 C 2.471482 0.080063 -0.144882
 C 2.725657 0.291123 -1.625941
 N 4.140874 0.461677 -1.890921
 C 3.150038 1.085113 0.802259
 C 3.938916 -0.121011 1.303999
 O 3.309031 -0.996332 0.356220
 H 0.394250 0.650973 -0.180462
 H 0.850807 -0.365845 1.197674
 H 0.680375 -1.084646 -0.410183
 H 2.193562 1.196739 -1.936976
 H 2.269839 -0.554046 -2.166994
 H 4.304921 0.649569 -2.870714
 H 4.625671 -0.396676 -1.657702
 H 2.483879 1.555193 1.525403
 H 3.750338 1.834079 0.289394
 H 3.731776 -0.430293 2.333851
 H 5.021641 -0.074385 1.154266