13
charge = 0
 C 1.102932 -0.071995 -0.027782
 C 2.577490 0.053240 -0.010646
 C 3.437352 1.116377 -0.083235
 N 4.742141 0.710860 -0.009381
 C 4.703084 -0.589109 0.107541
 N 3.419799 -1.023637 0.097126
 O 3.019956 -2.315194 0.290787
 H 0.656159 0.921479 -0.058052
 H 0.732622 -0.587706 0.862120
 H 0.744656 -0.625655 -0.901303
 H 3.175835 2.159338 -0.182468
 H 5.537165 -1.266959 0.207034
 H 2.914410 -2.695939 -0.590442