15
charge = 0
 C 1.019652 0.149354 0.209377
 C 2.454929 0.133618 -0.256284
 C 2.901334 -1.118983 -1.023099
 N 3.909872 -0.659401 -1.981049
 C 3.774534 0.598741 -2.038882
 N 2.751283 1.151987 -1.270011
 O 3.079007 2.403212 -0.724575
 H 0.845742 -0.645884 0.938204
 H 0.339913 0.000915 -0.632856
 H 0.773857 1.098050 0.692298
 H 3.129957 0.309002 0.593967
 H 2.056293 -1.547587 -1.576895
 H 3.304593 -1.901581 -0.378645
 H 4.359314 1.258497 -2.671596
 H 2.358719 2.976741 -1.003045