13
charge = 0
 C 0.947958 -0.051569 -0.069852
 C 2.412601 0.110501 -0.065297
 C 3.270574 1.145823 -0.065194
 N 4.582914 0.691479 -0.059533
 C 4.452188 -0.592289 -0.056482
 N 5.425095 -1.528489 -0.050839
 O 3.184097 -1.040905 -0.059514
 H 0.476634 0.931688 -0.073974
 H 0.597316 -0.593594 0.813735
 H 0.603300 -0.598132 -0.952999
 H 3.038328 2.199368 -0.068840
 H 6.380081 -1.229713 -0.047254
 H 5.196703 -2.502268 -0.047457