14
charge = 0
 C 1.101959 0.079538 0.302296
 C 2.384868 0.080529 -0.023258
 C 3.229707 1.329107 -0.180669
 N 4.525195 0.806503 -0.533629
 C 4.622519 -0.545612 -0.620108
 O 5.619513 -1.167714 -0.901754
 C 3.251600 -1.113921 -0.297801
 H 0.561682 1.003068 0.481590
 H 0.543408 -0.843981 0.401888
 H 3.264655 1.905727 0.750781
 H 2.829400 1.984194 -0.962922
 H 5.329466 1.383629 -0.711539
 H 3.335976 -1.789410 0.557329
 H 2.903842 -1.711956 -1.144005