14
charge = 0
 C 1.012970 0.051018 0.002730
 C 2.492439 0.052463 -0.102658
 C 3.308948 -0.998107 -0.204917
 N 4.648487 -0.601965 -0.283715
 C 4.772709 0.762995 -0.235371
 O 5.803919 1.388507 -0.282663
 C 3.345802 1.286993 -0.111690
 H 0.617365 -0.966374 -0.011822
 H 0.551363 0.603283 -0.822859
 H 0.676183 0.529694 0.928538
 H 3.057348 -2.049215 -0.231071
 H 5.439932 -1.215323 -0.365920
 H 3.132344 1.959088 -0.949224
 H 3.257081 1.885623 0.800733