18
charge = 0
 C 0.920527 0.080037 0.143797
 C 2.428869 0.121908 0.000230
 C 2.819959 0.138751 -1.469490
 N 4.257328 0.127659 -1.676853
 C 3.101924 1.163718 0.913953
 O 3.655687 0.149859 1.753406
 C 3.172728 -0.889761 0.888294
 H 0.454258 0.951606 -0.325902
 H 0.629168 0.070093 1.196623
 H 0.505629 -0.815976 -0.327897
 H 2.308371 0.989927 -1.949237
 H 2.410925 -0.765079 -1.934866
 H 4.669004 1.021992 -1.443411
 H 4.477137 -0.055182 -2.646585
 H 2.418236 1.824756 1.458641
 H 3.884476 1.776831 0.449149
 H 2.540246 -1.604923 1.425115
 H 3.994438 -1.408139 0.386454