13
charge = 0
 C 1.006550 -0.068751 0.061491
 C 2.484191 0.003303 0.066396
 C 3.318083 1.059879 0.069023
 N 4.617199 0.571260 0.073441
 C 4.630936 -0.805193 0.073651
 O 5.585967 -1.554381 0.076959
 N 3.288213 -1.128578 0.069230
 H 0.584141 0.936104 0.059954
 H 0.625574 -0.593272 0.943496
 H 0.631453 -0.593501 -0.822895
 H 3.093870 2.112677 0.068134
 H 5.463349 1.109126 0.076209
 H 2.976174 -2.082372 0.068331