14
charge = 0
 C 1.053849 -0.043046 0.193922
 C 2.554534 0.030031 0.121733
 C 3.189147 1.208698 0.862950
 N 4.411980 0.592506 1.308215
 C 4.270895 -0.768021 1.400094
 O 4.996815 -1.548784 1.942163
 O 3.135211 -1.121475 0.746106
 H 0.612678 0.837052 -0.280642
 H 0.720705 -0.083855 1.232993
 H 0.686398 -0.930205 -0.323420
 H 2.887475 0.032964 -0.922923
 H 2.555931 1.538958 1.697368
 H 3.366522 2.057459 0.199769
 H 5.038739 1.034308 1.957971