13
charge = 0
 C 0.960611 -0.081794 0.061104
 C 2.438252 -0.009741 0.066025
 C 3.272145 1.046834 0.068658
 N 4.571260 0.558213 0.073073
 C 4.584996 -0.818240 0.073306
 O 5.540025 -1.567430 0.076612
 N 3.242272 -1.141623 0.068876
 H 0.538202 0.923060 0.059554
 H 0.579627 -0.606308 0.943110
 H 0.585523 -0.606553 -0.823281
 H 3.047934 2.099632 0.067761
 H 5.417411 1.096078 0.075831
 H 2.930232 -2.095417 0.067971