13
charge = 0
 C 0.927156 0.089935 -0.090348
 C 2.410669 0.096394 -0.078473
 C 3.267988 1.151336 -0.074754
 N 4.548269 0.717154 -0.063173
 N 4.523109 -0.645845 -0.059284
 C 3.216960 -1.115087 -0.068386
 O 2.904436 -2.294167 -0.067374
 H 0.523650 1.104089 -0.096982
 H 0.531187 -0.432182 0.784916
 H 0.545282 -0.438056 -0.968342
 H 3.063121 2.211697 -0.079573
 H 5.402873 1.235948 -0.057803
 H 5.363008 -1.194815 -0.050914