11
charge = 0
 C 1.104062 -0.010324 -0.098347
 C 2.416579 -0.059491 0.112750
 C 3.324599 -1.176671 0.283041
 N 4.535785 -0.781824 0.467686
 N 4.537358 0.583127 0.437433
 C 3.303073 1.145990 0.227787
 O 3.032423 2.320341 0.158131
 H 0.500521 -0.907469 -0.174854
 H 0.611527 0.951006 -0.198573
 H 3.089403 -2.231840 0.268985
 H 5.402171 1.078056 0.564470