13
charge = 0
 C 0.926217 0.076793 -0.162839
 C 2.442983 0.030434 -0.036512
 C 3.126872 -1.137658 -0.665171
 N 4.016477 -0.806708 -1.520521
 N 4.043968 0.562837 -1.573813
 C 3.131948 1.182619 -0.763537
 O 2.932774 2.368133 -0.667454
 H 0.461150 -0.721854 0.417613
 H 0.618096 -0.031067 -1.204476
 H 0.559449 1.036394 0.204174
 H 2.720919 0.102355 1.022875
 H 2.937362 -2.184031 -0.461349
 H 4.655885 1.017342 -2.229011