12
charge = 0
 C 0.913492 0.050252 -0.039566
 C 2.400371 0.097674 -0.038844
 C 3.226172 1.180687 -0.036751
 O 3.023426 2.494981 -0.034736
 O 4.502405 0.828017 -0.036760
 N 4.576266 -0.558539 -0.038949
 C 3.339305 -0.963692 -0.040131
 H 0.478315 1.053846 -0.038165
 H 0.522940 -0.465303 0.841615
 H 0.523709 -0.462505 -0.922718
 H 2.076586 2.665425 -0.034878
 H 3.143824 -2.027852 -0.041918