12
charge = 0
 C 0.947399 -0.068286 0.022706
 C 2.470811 -0.095316 0.073426
 C 3.132826 -1.255369 -0.570435
 N 3.951347 -0.941924 -1.490003
 O 3.972924 0.456995 -1.614022
 C 3.104392 1.024648 -0.725077
 O 2.929229 2.199597 -0.662150
 H 0.525429 -0.859484 0.644120
 H 0.587813 -0.201042 -0.998987
 H 0.589633 0.894199 0.390221
 H 2.802034 0.006766 1.113870
 H 2.988763 -2.304184 -0.339670