14
charge = 0
 C 0.997509 -0.018246 0.264746
 C 2.484836 0.089887 0.016171
 C 3.252641 1.218098 0.743735
 N 4.093515 0.165917 1.296210
 O 4.868489 0.249282 2.421966
 C 3.344147 -0.889725 0.841408
 O 3.362645 -2.067429 1.047541
 H 0.453001 0.780019 -0.244592
 H 0.771076 0.040322 1.332211
 H 0.623229 -0.975775 -0.102147
 H 2.720808 0.037184 -1.048463
 H 2.652884 1.734222 1.499012
 H 3.787564 1.940883 0.124011
 H 5.781346 0.175852 2.118881