16
charge = 0
 C 1.024110 0.147957 -0.264705
 C 2.429504 -0.269457 0.062503
 C 3.232704 -0.991152 -0.922935
 O 3.447684 0.393110 -0.682250
 C 2.728299 -0.415684 1.522355
 C 4.104557 -0.315125 2.029833
 N 3.144534 0.759201 2.284059
 H 0.901156 0.275811 -1.340748
 H 0.781875 1.092741 0.228433
 H 0.310818 -0.603572 0.083057
 H 2.804303 -1.227993 -1.894263
 H 4.029891 -1.648182 -0.584177
 H 2.023422 -1.050115 2.054394
 H 4.889192 -0.128136 1.304363
 H 4.397878 -0.886903 2.903345
 H 3.333863 1.518188 1.634837