14
charge = 0
 C 0.922506 -0.091737 0.121785
 C 2.432645 -0.091802 -0.055074
 C 3.176342 0.933111 0.832656
 O 3.585462 -0.092156 1.739744
 C 3.176213 -1.117084 0.832340
 C 2.804488 -0.091632 -1.457896
 N 3.100544 -0.091440 -2.569543
 H 0.682810 -0.091886 1.186897
 H 0.476902 -0.976370 -0.336944
 H 0.477004 0.793089 -0.336674
 H 2.542903 1.685771 1.309731
 H 4.028636 1.414681 0.343247
 H 2.542690 -1.869834 1.309167
 H 4.028443 -1.598602 0.342764