14
charge = 0
 C 0.895963 0.131894 0.022644
 C 2.390623 0.033628 -0.064870
 C 3.054033 -0.705960 -1.164071
 O 2.239696 -1.314112 -2.100361
 C 3.124851 0.813460 -1.145426
 C 4.360878 1.464873 -0.856383
 N 5.367368 1.970819 -0.615128
 H 0.490640 -0.719761 0.573762
 H 0.441683 0.131076 -0.968326
 H 0.599187 1.044818 0.543126
 H 2.912747 -0.006923 0.885069
 H 3.977822 -1.228764 -0.928557
 H 2.721777 -1.386430 -2.928943
 H 2.494550 1.312762 -1.873056