14
charge = 0
 C 0.928541 0.131061 0.003847
 C 2.414929 0.107267 -0.019363
 C 3.274296 1.154109 -0.070946
 O 4.554972 0.742073 -0.061362
 C 4.529923 -0.617796 -0.012381
 C 3.246719 -1.062099 0.019716
 N 2.768500 -2.363587 0.158973
 H 0.552734 1.155104 0.017402
 H 0.538416 -0.383132 0.887123
 H 0.500078 -0.362740 -0.874996
 H 3.114880 2.219784 -0.113497
 H 5.485234 -1.114738 0.008477
 H 3.459939 -3.071267 -0.036475
 H 1.933428 -2.538730 -0.380325