18
charge = 0
 C 1.053939 0.059354 0.183625
 C 2.540720 -0.058562 -0.041911
 C 2.899687 -0.030330 -1.511250
 O 3.261585 0.973529 0.676892
 C 4.156323 0.016866 1.254267
 C 3.284070 -1.147061 0.794988
 N 3.951736 -2.279601 0.225284
 H 0.670114 0.988292 -0.246221
 H 0.827666 0.058808 1.251753
 H 0.526332 -0.775716 -0.286348
 H 2.526265 0.890677 -1.964754
 H 2.457675 -0.877223 -2.043211
 H 3.982027 -0.055694 -1.659287
 H 4.287376 0.162986 2.329597
 H 5.142092 0.030564 0.769815
 H 2.634722 -1.500965 1.599532
 H 4.491404 -2.028183 -0.593099
 H 3.303758 -3.010162 -0.037292