18
charge = 0
 C 0.947245 -0.099911 -0.114705
 C 2.445612 -0.001582 -0.009415
 C 3.105319 1.063499 0.900594
 O 2.334254 1.486521 1.990578
 C 4.124161 -0.039999 1.224012
 N 3.128968 -1.025861 0.795802
 C 3.579025 -2.228360 0.154301
 H 0.547043 0.729315 -0.703079
 H 0.479565 -0.074940 0.870981
 H 0.654951 -1.031502 -0.606320
 H 2.894238 0.068437 -1.016801
 H 3.477131 1.963475 0.413434
 H 2.040089 0.699544 2.460594
 H 4.461432 -0.123690 2.261467
 H 5.001041 0.005260 0.557801
 H 4.131743 -2.847780 0.865197
 H 4.237111 -2.026726 -0.710454
 H 2.723171 -2.810480 -0.195987