13
charge = 0
 C 0.992107 -0.036064 0.092992
 C 2.473229 -0.014069 0.093334
 C 3.311780 1.037698 0.090794
 O 4.605686 0.548160 0.092455
 C 4.443098 -0.782457 0.095874
 N 5.564378 -1.532747 0.098100
 N 3.216465 -1.189907 0.096571
 H 0.584349 0.975477 0.090352
 H 0.614626 -0.561288 0.974052
 H 0.615096 -0.565684 -0.785637
 H 3.201705 2.107429 0.087963
 H 6.466972 -1.101629 0.097563
 H 5.476629 -2.529419 0.100897