14
charge = 0
 C 0.929984 -0.081992 -0.028685
 C 2.441802 -0.103350 0.002035
 C 3.062927 1.030178 0.820423
 O 4.243479 0.478377 1.391545
 C 4.159270 -0.877953 1.370210
 O 4.980082 -1.599603 1.854543
 N 3.000226 -1.224365 0.725101
 H 0.571432 0.833335 -0.506376
 H 0.525607 -0.130452 0.984600
 H 0.534638 -0.926413 -0.597519
 H 2.828484 -0.074001 -1.026999
 H 2.389380 1.340717 1.626724
 H 3.335150 1.898452 0.221152
 H 2.932719 -2.168442 0.385046