14
charge = 0
 C 0.985416 0.015378 0.024556
 C 2.471750 -0.010788 0.027073
 C 3.351423 1.016099 0.031857
 O 4.608550 0.567128 0.032642
 N 4.587443 -0.805306 0.028266
 C 3.329537 -1.152182 0.024966
 C 2.941905 -2.585679 0.019754
 H 0.610002 1.039453 0.027107
 H 0.575745 -0.491935 0.902409
 H 0.578824 -0.486422 -0.857886
 H 3.229712 2.088798 0.035034
 H 3.832239 -3.213424 0.019358
 H 2.343601 -2.825125 -0.863153
 H 2.340464 -2.830684 0.898997