12
charge = 0
 C 1.088961 -0.079005 0.108591
 C 2.393438 -0.006181 -0.101141
 C 3.314124 1.168576 -0.084660
 O 4.625930 0.660490 -0.383737
 N 4.474222 -0.708563 -0.556165
 C 3.227267 -1.201114 -0.416693
 O 2.890017 -2.359639 -0.528351
 H 0.482666 0.789501 0.337899
 H 0.603206 -1.046517 0.049334
 H 3.358482 1.656943 0.893270
 H 3.062207 1.914072 -0.844567
 H 5.323491 -1.199573 -0.772281