15
charge = 0
 C 1.272333 -0.134947 -0.007614
 C 2.724223 0.086608 -0.303627
 N 3.277985 -0.261301 -1.603176
 C 3.144055 1.151240 -1.247174
 C 4.404606 1.930848 -1.026218
 N 5.528909 1.184442 -1.061654
 O 4.376226 3.124533 -0.804527
 H 1.078623 -1.184576 0.229441
 H 0.650741 0.143105 -0.863180
 H 0.955441 0.466054 0.847821
 H 3.404066 -0.133843 0.515669
 H 2.545413 -0.539048 -2.247710
 H 2.352919 1.741822 -1.697360
 H 5.465841 0.231962 -1.382794
 H 6.417729 1.639300 -0.954207