18
charge = 0
 C 1.001284 0.232324 0.375333
 C 2.384236 -0.165542 -0.092098
 N 3.453491 0.817443 0.181758
 C 3.927083 0.036118 1.333241
 C 3.118765 -1.170043 0.821455
 C 3.952356 -2.194177 0.086608
 O 3.172671 -3.135345 -0.622235
 H 0.635396 1.097549 -0.185343
 H 0.998496 0.490699 1.438902
 H 0.290912 -0.585159 0.222471
 H 2.345713 -0.465089 -1.145239
 H 3.133561 1.755035 0.389374
 H 3.586437 0.395875 2.311212
 H 5.014475 -0.090657 1.372870
 H 2.484056 -1.661257 1.566100
 H 4.632842 -2.695014 0.790845
 H 4.570320 -1.691602 -0.662276
 H 2.653706 -3.636535 0.012011