18
charge = 0
 C 0.946545 -0.131665 -0.671775
 C 2.251854 0.434143 -0.182844
 N 2.234413 1.064415 1.115055
 C 3.545695 -0.272818 -0.510569
 C 3.256984 1.073518 -1.117379
 C 3.022571 1.222394 -2.588368
 O 3.943247 2.169338 -0.607579
 H 0.588384 -0.909829 0.010152
 H 1.036192 -0.577655 -1.663092
 H 0.177473 0.646025 -0.726918
 H 2.229184 0.380328 1.861475
 H 1.412399 1.647264 1.221979
 H 3.487080 -1.155132 -1.137940
 H 4.306161 -0.303802 0.261300
 H 2.542143 0.342280 -3.015968
 H 3.980342 1.364002 -3.095062
 H 2.401516 2.098239 -2.792387
 H 3.694306 2.197234 0.332228