18
charge = 0
 C 1.028731 0.101157 -0.004941
 C 2.530795 0.017211 0.040581
 N 3.248824 1.072731 0.797526
 C 4.203917 0.056517 1.298765
 C 3.267166 -1.084643 0.849959
 C 2.475155 -1.684862 1.984910
 O 3.816936 -2.158377 0.131676
 H 0.714865 1.019567 -0.507988
 H 0.592872 0.098227 0.997559
 H 0.610092 -0.742773 -0.558558
 H 2.920612 0.013066 -0.988022
 H 2.662798 1.401054 1.557708
 H 4.452240 0.115423 2.361506
 H 5.134938 0.084319 0.721111
 H 2.036914 -0.908088 2.614664
 H 3.134502 -2.297520 2.603392
 H 1.672996 -2.320047 1.603876
 H 4.327886 -1.802164 -0.601025