16
charge = 0
 C 1.075410 -0.277681 0.332893
 C 2.538798 0.013770 0.047512
 N 3.283638 0.874459 0.996497
 C 2.591918 1.798957 1.850806
 C 3.992484 -0.250953 1.610387
 C 3.468758 -1.119690 0.476257
 O 3.677132 -2.226544 0.090380
 H 0.463856 0.618167 0.203868
 H 0.921068 -0.655275 1.346331
 H 0.716964 -1.035646 -0.366439
 H 2.661999 0.332029 -0.994259
 H 2.054793 2.535710 1.249132
 H 3.320096 2.342866 2.457293
 H 1.871254 1.324103 2.537776
 H 3.586635 -0.580690 2.581490
 H 5.077286 -0.141471 1.700664