16
charge = 0
 C 1.159538 0.130629 0.461973
 C 2.585157 -0.015546 -0.065266
 N 3.515913 1.034888 0.321667
 C 4.136727 0.649675 1.586714
 C 4.388132 -0.835871 1.389478
 C 3.229816 -1.269451 0.515458
 O 2.854991 -2.393019 0.323485
 H 0.684529 1.015366 0.030817
 H 1.144662 0.230453 1.550680
 H 0.565636 -0.744855 0.192017
 H 2.552365 -0.118721 -1.155454
 H 3.080321 1.945895 0.362461
 H 3.486276 0.804078 2.462384
 H 5.051893 1.221839 1.749834
 H 4.441714 -1.430215 2.301080
 H 5.307020 -1.002765 0.817260