18
charge = 0
 C 0.897641 0.028607 0.097201
 C 2.419939 0.067065 0.090546
 N 2.988821 0.191728 -1.251439
 C 3.010489 1.184362 0.954118
 C 4.394442 0.646928 1.259892
 O 4.224846 -0.753483 1.418000
 C 3.039730 -1.162807 0.764043
 H 0.488976 0.928294 -0.371651
 H 0.497322 -0.034932 1.112527
 H 0.529280 -0.834286 -0.466059
 H 2.608396 1.007979 -1.717466
 H 2.740142 -0.612478 -1.815995
 H 2.427045 1.294021 1.872565
 H 3.025819 2.145852 0.435869
 H 4.822528 1.045268 2.182913
 H 5.081337 0.850956 0.430712
 H 2.351223 -1.588057 1.504542
 H 3.272603 -1.941225 0.027552