15
charge = 0
 C 1.139736 -0.012622 -0.104011
 C 2.611363 0.142322 0.119848
 N 3.171379 1.280780 0.030125
 C 4.611951 1.306882 0.159489
 C 5.217848 -0.036594 -0.166997
 O 4.612239 -1.026734 0.655718
 N 3.231335 -1.038453 0.488753
 H 0.730944 0.953721 -0.390150
 H 0.643747 -0.365684 0.802840
 H 0.932353 -0.734022 -0.900203
 H 4.891741 1.600602 1.177915
 H 5.007451 2.076210 -0.511943
 H 6.282644 -0.088851 0.063395
 H 5.065762 -0.285195 -1.226093
 H 2.956005 -1.857253 -0.041988