13
charge = 0
 C 1.069714 -0.019984 0.139208
 C 2.547811 -0.098188 0.060924
 N 3.229783 -1.174925 0.065765
 C 4.622607 -0.782281 -0.026340
 C 4.647869 0.736662 -0.087519
 O 5.573397 1.500683 -0.168536
 N 3.307896 1.063938 -0.026646
 H 0.662615 -1.026831 0.201124
 H 0.660882 0.480535 -0.742869
 H 0.757863 0.549658 1.018970
 H 5.097571 -1.205394 -0.916526
 H 5.194059 -1.136373 0.836858
 H 2.960713 2.007800 -0.044704