12
charge = 0
 C 1.113938 0.038840 -0.018251
 C 2.584360 0.160939 -0.022670
 N 3.312671 1.218115 -0.025626
 C 4.623197 0.762810 -0.029126
 C 4.592694 -0.587613 -0.028021
 O 5.483454 -1.580626 -0.029893
 O 3.311805 -0.996634 -0.023941
 H 0.683418 1.038286 -0.017689
 H 0.765058 -0.500816 0.865869
 H 0.759856 -0.502060 -0.899540
 H 5.470465 1.428743 -0.032120
 H 6.367685 -1.203595 -0.032782