17
charge = 0
 C 0.840919 0.121698 -0.196951
 C 2.337442 0.049544 -0.100829
 N 2.932356 0.139366 1.207000
 C 3.127258 -0.819589 -1.075708
 N 2.520758 -1.586515 -2.115357
 C 3.207888 0.673526 -1.161081
 O 4.351279 1.344269 -0.775343
 H 0.368431 -0.700282 0.352470
 H 0.501733 0.068138 -1.233345
 H 0.469292 1.061488 0.223228
 H 2.866228 -0.733706 1.715159
 H 2.487909 0.860317 1.762832
 H 4.009034 -1.275985 -0.629748
 H 2.195946 -1.016220 -2.882161
 H 1.757476 -2.165084 -1.792098
 H 2.712949 1.147645 -2.004961
 H 4.454323 1.127411 0.165784