15
charge = 0
 C 0.986302 -0.019071 0.139798
 C 2.473760 0.036051 -0.151011
 N 2.829577 0.028653 -1.551657
 C 3.268476 1.066186 0.705406
 N 3.890361 -0.069330 1.376563
 C 3.297652 -1.024064 0.615610
 O 3.394683 -2.218964 0.552806
 H 0.477245 0.836894 -0.314275
 H 0.782042 -0.005032 1.213311
 H 0.558436 -0.933875 -0.276511
 H 2.166317 0.562332 -2.100948
 H 2.815796 -0.923586 -1.898970
 H 2.668367 1.698741 1.364480
 H 3.959760 1.666725 0.111950
 H 4.634526 -0.130860 2.053538