14
charge = 0
 C 0.836624 -0.086173 0.134529
 C 2.342876 -0.021784 -0.047585
 N 2.802857 -0.026463 -1.417854
 C 3.073508 0.967183 0.876958
 O 3.669693 -0.141128 1.614340
 C 3.101600 -1.053688 0.790438
 O 3.223206 -2.232962 0.798316
 H 0.364762 0.775910 -0.346212
 H 0.551366 -0.085142 1.189291
 H 0.443402 -0.995311 -0.325049
 H 2.192003 0.526990 -2.006991
 H 2.796753 -0.973039 -1.779711
 H 2.453649 1.573818 1.537600
 H 3.844402 1.557779 0.384630