14
charge = 0
 C 0.831437 -0.000804 0.156503
 C 2.312984 -0.032937 -0.119796
 N 3.125786 0.934044 0.629629
 C 3.998942 0.020580 1.130270
 O 5.034012 0.097522 1.734199
 C 3.163976 -1.136483 0.553517
 O 3.828091 -1.992086 -0.324922
 H 0.380863 0.923543 -0.213573
 H 0.632907 -0.070469 1.228642
 H 0.336182 -0.835640 -0.344711
 H 2.523769 -0.004725 -1.193071
 H 3.179547 1.940486 0.585692
 H 2.604647 -1.681087 1.325633
 H 4.662258 -2.244065 0.084478