14
charge = 0
 C 0.893397 0.082249 -0.126746
 C 2.389608 0.026154 0.151485
 N 2.793540 -1.138341 0.894031
 C 3.459487 -0.849759 2.054539
 O 3.921679 -1.647247 2.839008
 C 3.478138 0.636327 2.120653
 C 2.876097 1.129651 1.043652
 H 0.583884 -0.762693 -0.745925
 H 0.638013 1.000016 -0.661410
 H 0.331246 0.052169 0.808451
 H 2.929153 0.079004 -0.806619
 H 2.669605 -2.083839 0.578359
 H 3.927275 1.172458 2.943709
 H 2.723168 2.172331 0.796214