11
charge = 0
 C 0.970406 -0.031249 -0.085838
 C 2.286512 -0.043772 0.134371
 N 3.156475 -1.093695 0.300260
 C 4.446342 -0.623917 0.506839
 O 5.423909 -1.291293 0.682925
 N 4.392581 0.808654 0.469531
 C 3.171930 1.118513 0.259606
 H 0.381668 -0.936067 -0.166540
 H 0.460370 0.916880 -0.189605
 H 2.930517 -2.071787 0.281500
 H 2.828490 2.145244 0.182052