11
charge = 0
 C 1.122150 -0.019801 -0.019702
 C 2.596115 -0.071303 -0.019915
 N 3.306347 -1.128237 -0.019036
 C 4.668011 -0.655992 -0.019737
 O 5.628826 -1.349721 -0.019225
 N 4.718097 0.804244 -0.021117
 C 3.498500 1.143655 -0.021228
 H 0.698756 -1.022132 -0.018661
 H 0.765501 0.528697 -0.897570
 H 0.765812 0.530391 0.857231
 H 3.168075 2.178989 -0.022150