13
charge = 0
 C 1.014556 -0.095492 -0.006194
 C 2.493825 0.018110 -0.010623
 C 3.331996 1.113222 -0.010195
 O 3.028547 2.435494 -0.005487
 C 4.637602 0.594028 -0.015878
 N 4.619650 -0.728917 -0.019615
 N 3.331387 -1.051768 -0.016380
 H 0.552630 0.894484 -0.002610
 H 0.644829 -0.622340 0.878519
 H 0.639294 -0.618462 -0.890874
 H 2.074379 2.545430 -0.001496
 H 5.571538 1.134679 -0.017350
 H 3.070966 -2.021768 -0.018307