11
charge = 0
 C 0.868857 0.063674 -0.015931
 C 2.343731 0.007434 -0.013657
 N 3.119488 1.011172 -0.010696
 N 4.525229 0.544075 -0.009230
 C 4.547499 -0.720575 -0.011352
 C 3.153253 -1.274261 -0.014553
 O 2.769922 -2.406460 -0.017103
 H 0.527331 1.097484 -0.014725
 H 0.470040 -0.455982 0.859782
 H 0.472857 -0.453007 -0.894676
 H 5.465984 -1.294043 -0.010849