13
charge = 0
 C 1.088087 0.006345 0.094811
 C 2.571184 0.061192 0.085953
 N 3.181282 1.178708 0.098503
 N 4.589240 1.174802 0.089770
 C 5.189852 0.061829 0.069151
 C 4.534360 -1.275477 0.052961
 O 3.115064 -1.169440 0.064382
 H 0.689160 1.017170 0.111964
 H 0.739452 -0.547394 0.969996
 H 0.727953 -0.522115 -0.791270
 H 6.278731 0.086062 0.062793
 H 4.840760 -1.866751 0.924424
 H 4.828695 -1.839541 -0.840439