13
charge = 0
 C 0.972659 -0.010187 -0.034715
 C 2.459656 -0.006478 -0.038685
 N 3.079939 1.101984 -0.026788
 N 4.489809 1.090957 -0.030735
 C 5.075515 -0.030317 -0.045958
 O 4.546881 -1.259238 -0.059522
 C 3.126941 -1.348216 -0.056931
 H 0.603599 1.013837 -0.021299
 H 0.588198 -0.545789 0.839808
 H 0.583433 -0.524464 -0.919866
 H 6.160466 -0.067235 -0.049305
 H 2.822500 -1.933782 0.819253
 H 2.817902 -1.912074 -0.945656