14
charge = 0
 C 1.129322 -0.102164 0.265668
 C 2.574732 0.003071 -0.045583
 N 3.264465 -0.997958 -0.427980
 O 4.570701 -0.621754 -0.670697
 C 4.753328 0.710961 -0.181191
 C 3.357648 1.293919 -0.086311
 O 2.954747 2.103589 -1.173005
 H 0.770043 -1.111896 0.070577
 H 0.558841 0.607885 -0.338707
 H 0.940889 0.143051 1.315076
 H 5.401998 1.255671 -0.867924
 H 5.222084 0.654322 0.807257
 H 3.223860 1.912541 0.801785
 H 3.007153 1.577362 -1.977466