14
charge = 0
 C 0.935259 -0.045855 -0.052138
 C 2.426724 -0.058217 -0.061639
 N 3.009795 1.077242 -0.069695
 O 4.381655 1.137109 -0.078663
 C 5.210460 -0.035610 -0.080197
 C 4.469011 -1.321346 -0.070093
 C 3.144347 -1.329746 -0.061298
 H 0.569381 0.979701 -0.053689
 H 0.550185 -0.561099 0.833362
 H 0.538895 -0.567790 -0.928692
 H 5.868257 0.032877 0.797089
 H 5.855819 0.026203 -0.967181
 H 5.053795 -2.235361 -0.070322
 H 2.575186 -2.251917 -0.053845