12
charge = 0
 C 1.121159 -0.064340 0.042495
 C 2.591634 0.028354 -0.108570
 N 3.299633 -1.016520 -0.289675
 O 4.651389 -0.647202 -0.400254
 C 4.790581 0.705373 -0.280981
 O 5.845942 1.250255 -0.341620
 C 3.406965 1.268490 -0.073999
 H 0.802821 -1.103919 -0.026232
 H 0.617322 0.516710 -0.734930
 H 0.807239 0.343369 1.007424
 H 3.156380 1.979747 -0.865387
 H 3.346236 1.806382 0.875719