18
charge = 0
 C 1.016087 0.126570 0.353292
 C 2.400980 -0.134546 -0.200126
 O 3.264838 0.945009 0.156999
 C 4.374138 0.462520 0.892142
 C 3.927070 -0.868737 1.467135
 C 3.062301 -1.420450 0.337668
 N 3.883839 -2.155746 -0.612055
 H 0.665601 1.112537 0.042866
 H 1.021803 0.098518 1.446136
 H 0.305930 -0.621312 -0.009689
 H 2.352688 -0.183763 -1.296231
 H 4.632546 1.203417 1.652203
 H 5.248392 0.342279 0.234317
 H 3.324477 -0.704484 2.363455
 H 4.747153 -1.542935 1.715393
 H 2.301748 -2.108989 0.714722
 H 4.614967 -1.561157 -0.986046
 H 3.326842 -2.458522 -1.402300