16
charge = 0
 C 1.009158 -0.001725 0.133750
 C 2.510571 -0.057998 -0.015067
 O 2.846938 -1.187979 -0.851331
 C 3.284658 -0.680640 -2.026166
 C 3.422601 0.639937 -2.065743
 C 3.114217 1.195069 -0.706708
 N 4.299849 1.786830 -0.109950
 H 0.622413 -0.937986 0.539537
 H 0.539856 0.175665 -0.837268
 H 0.725969 0.811512 0.807236
 H 2.991484 -0.230162 0.952583
 H 3.473701 -1.417507 -2.795789
 H 3.772486 1.222617 -2.903414
 H 2.353379 1.983427 -0.746572
 H 5.048415 1.105875 -0.061562
 H 4.113496 2.117566 0.829487