18
charge = 0
 C 0.829433 -0.044838 0.055683
 C 2.335966 -0.064956 -0.027954
 O 2.767270 -0.157546 -1.380779
 C 3.129633 1.016929 0.742296
 C 4.151651 -0.056327 1.169225
 N 5.376566 0.015091 0.403153
 C 3.106943 -1.134415 0.765335
 H 0.423235 0.837962 -0.450275
 H 0.493010 -0.015515 1.094426
 H 0.410707 -0.933788 -0.422158
 H 2.437349 0.615052 -1.850007
 H 2.567990 1.418142 1.588421
 H 3.526550 1.843534 0.148503
 H 4.411810 -0.047974 2.229974
 H 5.157417 -0.037815 -0.586186
 H 5.971842 -0.777033 0.616326
 H 2.529573 -1.500557 1.617469
 H 3.468454 -1.980457 0.177957