14
charge = 0
 C 1.273294 -0.048776 -0.259344
 C 2.710075 -0.090314 0.220442
 O 3.449418 1.045085 -0.131392
 C 3.619045 1.141337 -1.522559
 C 3.826169 -0.199355 -2.133098
 N 3.730271 -1.314721 -1.532452
 O 3.355028 -1.279404 -0.206806
 H 0.801680 0.875956 0.078263
 H 0.728664 -0.896329 0.157757
 H 1.202102 -0.106368 -1.346343
 H 2.752389 -0.144440 1.309369
 H 4.507750 1.756688 -1.691634
 H 2.774305 1.659094 -2.004009
 H 4.121311 -0.268753 -3.176595