12
charge = 0
 C 1.028823 -0.100892 0.061604
 C 2.491888 0.085233 0.061091
 C 3.332336 1.151277 0.057863
 O 3.084102 2.473061 0.053817
 N 4.634905 0.729799 0.059207
 C 4.544127 -0.553789 0.063115
 O 3.293642 -1.029938 0.064530
 H 0.525275 0.868251 0.058762
 H 0.688431 -0.645304 0.947324
 H 0.688454 -0.650487 -0.820919
 H 2.134427 2.618887 0.053252
 H 5.346200 -1.275277 0.065353