13
charge = 0
 C 0.952637 0.113816 0.029360
 C 2.478373 0.120971 0.082655
 O 2.957550 0.087888 1.407292
 C 3.043180 1.224857 -0.776984
 N 3.669665 0.801089 -1.796459
 N 3.668021 -0.645815 -1.759191
 C 3.049024 -1.018625 -0.716005
 H 0.556612 1.012177 0.512147
 H 0.570956 -0.762282 0.556580
 H 0.590866 0.095557 -1.000402
 H 2.479829 0.744895 1.921891
 H 2.917563 2.287970 -0.595284
 H 2.925713 -2.067596 -0.469400