14
charge = 0
 C 0.965979 0.066587 0.033267
 C 2.434639 -0.153351 -0.174236
 O 3.248124 0.878180 0.466555
 C 4.012997 -0.042192 1.117980
 O 4.984850 0.150029 1.765679
 C 3.168115 -1.231136 0.660620
 N 3.852887 -2.353786 0.113624
 H 0.639241 0.997903 -0.433395
 H 0.727881 0.114052 1.098511
 H 0.398196 -0.753663 -0.413838
 H 2.698425 -0.201060 -1.235159
 H 2.535757 -1.561322 1.491167
 H 4.446166 -2.110430 -0.667712
 H 3.224753 -3.095101 -0.161454