12
charge = 0
 C 1.031382 0.017674 0.071762
 C 2.361691 0.060904 0.128896
 O 3.022827 1.194563 0.480912
 C 4.363714 1.138679 0.062353
 O 5.033538 0.027109 0.573629
 N 4.456743 -1.170180 0.190482
 C 3.206604 -1.107688 -0.067196
 H 0.435069 0.897561 0.272660
 H 0.531816 -0.915298 -0.147852
 H 4.867623 2.019158 0.454136
 H 4.400860 1.104780 -1.035644
 H 2.750124 -2.040981 -0.378138