14
charge = 0
 C 1.042263 0.089603 -0.041973
 C 2.548026 -0.096250 0.038790
 O 3.249209 1.078143 -0.330500
 C 3.603924 1.022819 -1.673533
 O 4.489278 -0.028103 -1.951711
 N 3.976629 -1.265292 -1.617479
 C 3.050856 -1.267797 -0.745680
 H 0.740186 0.916847 0.601936
 H 0.522829 -0.813901 0.286407
 H 0.728149 0.308655 -1.064483
 H 2.824531 -0.284366 1.083791
 H 4.131066 1.941776 -1.923592
 H 2.711527 0.894963 -2.306046
 H 2.653607 -2.252697 -0.514134