16
charge = 0
 C 1.099084 0.023022 0.044560
 C 2.602652 -0.019631 -0.103114
 O 2.963157 -1.149635 -0.933232
 N 3.382143 -0.701288 -2.163281
 C 3.492236 0.562416 -2.145016
 C 3.198711 1.196352 -0.820657
 C 4.450333 1.773764 -0.168081
 H 0.728085 -0.914496 0.461535
 H 0.624501 0.178762 -0.927345
 H 0.804363 0.838720 0.710368
 H 3.081672 -0.186406 0.866020
 H 3.824828 1.074592 -3.039512
 H 2.447713 1.986848 -0.923731
 H 5.210668 0.999975 -0.039969
 H 4.215778 2.190045 0.814689
 H 4.880657 2.572869 -0.776215