14
charge = 0
 C 0.979311 0.132120 0.185958
 C 2.464553 0.051995 -0.089647
 O 2.728397 -1.046621 -0.991847
 N 3.362777 -0.593351 -2.114159
 C 3.548594 0.668804 -2.030541
 C 3.043074 1.242311 -0.800523
 C 3.077097 2.514632 -0.410933
 H 0.622187 -0.799445 0.627682
 H 0.431307 0.316827 -0.739340
 H 0.773541 0.949065 0.881523
 H 3.015457 -0.162514 0.832826
 H 4.036441 1.190955 -2.842431
 H 3.523037 3.278114 -1.036750
 H 2.667207 2.832407 0.540482