13
charge = 0
 C 1.017076 -0.043322 -0.016681
 C 2.481131 0.153100 -0.020818
 C 3.282384 1.254667 -0.018269
 N 2.949575 2.586006 -0.010732
 C 4.589396 0.700609 -0.025516
 N 4.568962 -0.602433 -0.031766
 O 3.255889 -0.955452 -0.028894
 H 0.503347 0.919218 -0.010582
 H 0.691676 -0.602620 0.864990
 H 0.685650 -0.594625 -0.901136
 H 1.995116 2.882623 -0.005059
 H 3.660188 3.288238 -0.009081
 H 5.539911 1.216101 -0.026346