14
charge = 0
 C 0.875885 -0.093010 0.213645
 C 2.255790 -0.008401 -0.363652
 O 2.571863 -1.159270 -1.118045
 N 3.317528 -0.722199 -2.229666
 C 3.142258 0.535673 -2.283911
 C 3.658110 1.431228 -3.335036
 O 2.380486 1.062617 -1.300243
 H 0.816110 -0.950866 0.885055
 H 0.143690 -0.213132 -0.585484
 H 0.650676 0.810226 0.782666
 H 3.020961 0.144762 0.416481
 H 4.222944 0.850727 -4.061404
 H 4.298966 2.201959 -2.901683
 H 2.826633 1.931777 -3.837134