14
charge = 0
 C 0.864354 -0.006862 -0.224513
 C 2.352746 0.038162 0.109091
 C 2.697486 1.086763 1.100076
 C 3.190725 1.056457 2.364254
 C 3.262923 2.422488 2.722759
 N 2.851405 3.201427 1.764521
 O 2.493355 2.359235 0.737225
 H 0.663166 -0.783335 -0.964928
 H 0.527416 0.947488 -0.631870
 H 0.270209 -0.222331 0.665891
 H 2.929619 0.216566 -0.804418
 H 2.683430 -0.922551 0.509524
 H 3.461476 0.192367 2.947120
 H 3.601799 2.866636 3.647869