12
charge = 0
 C 1.854433 -1.254457 -0.397640
 C 2.147240 -0.024145 0.016482
 C 2.921019 0.288118 1.195056
 C 3.301522 1.474832 1.745145
 C 4.037411 1.088077 2.885507
 N 4.095035 -0.207777 3.010975
 O 3.393084 -0.716181 1.948201
 H 1.267721 -1.412838 -1.293517
 H 2.190916 -2.130533 0.143859
 H 1.800024 0.839593 -0.541125
 H 3.086136 2.467093 1.386272
 H 4.528648 1.707809 3.621696