10
charge = 0
 C 0.906377 -0.127972 0.044177
 C 2.104873 -0.049255 0.047033
 C 3.508588 0.056755 0.050379
 C 4.349567 1.126370 0.050129
 C 5.627893 0.529895 0.054726
 N 5.557538 -0.772173 0.057468
 O 4.228515 -1.080946 0.054770
 H -0.155854 -0.201545 0.041674
 H 4.084004 2.169401 0.047113
 H 6.598898 1.003551 0.056142