14
charge = 0
 C 1.859046 0.651572 1.026437
 C 1.914322 -0.374126 0.190455
 C 3.066192 -1.309679 0.099619
 C 2.732923 -2.784182 0.333784
 C 3.481303 -3.396207 -0.805827
 N 3.917979 -2.556845 -1.649447
 O 3.602569 -1.279417 -1.248575
 H 0.992371 1.300074 1.073322
 H 2.682943 0.879549 1.695466
 H 1.086522 -0.582921 -0.483797
 H 3.868058 -0.984644 0.772914
 H 1.660452 -2.994484 0.249878
 H 3.062124 -3.139742 1.310847
 H 3.632305 -4.452850 -0.986375