16
charge = 0
 C 3.224210 1.200604 0.032834
 C 2.514901 -0.140461 -0.023121
 C 3.449303 -1.321554 0.156454
 C 2.757959 -2.679802 0.043526
 C 3.305122 -3.140334 -1.267224
 N 4.207174 -2.391188 -1.749780
 O 4.432347 -1.326569 -0.910364
 H 2.521392 2.023253 -0.113770
 H 3.990063 1.266675 -0.741577
 H 3.711983 1.347804 1.000682
 H 1.996030 -0.257062 -0.981402
 H 1.748845 -0.197054 0.758973
 H 4.012980 -1.219103 1.088216
 H 1.667836 -2.593399 0.033377
 H 3.024301 -3.373389 0.846746
 H 3.018674 -4.033322 -1.807658