14
charge = 0
 C 2.406317 -0.730320 -1.050386
 C 2.115622 0.308513 -0.280056
 C 3.120427 1.154130 0.407750
 C 2.920261 2.692190 0.354682
 N 2.788014 2.669378 1.803220
 C 2.945877 1.323189 1.942119
 O 2.947562 0.591976 2.889417
 H 1.628762 -1.325500 -1.514134
 H 3.433419 -1.026742 -1.238044
 H 1.073169 0.571094 -0.107663
 H 4.137601 0.843957 0.159764
 H 2.018015 3.012001 -0.172561
 H 3.782726 3.253496 -0.012521
 H 2.653219 3.397739 2.486514