14
charge = 0
 C 1.012324 -0.119260 0.074673
 C 2.507899 0.077692 -0.155146
 C 2.990883 -0.489617 -1.433348
 C 3.540005 0.017513 -2.559868
 N 3.793878 -1.004787 -3.455509
 C 3.394560 -2.060202 -2.843317
 O 2.893982 -1.839880 -1.613449
 H 0.711498 0.308885 1.032955
 H 0.754768 -1.179831 0.083024
 H 0.429555 0.362845 -0.712923
 H 3.069000 -0.371136 0.672150
 H 2.753992 1.142366 -0.156549
 H 3.771677 1.045982 -2.787440
 H 3.411469 -3.082461 -3.188354