12
charge = 0
 C 0.909359 0.051358 -0.138560
 C 2.167953 0.088488 0.295669
 C 2.939930 -1.045785 0.722193
 C 4.210142 -1.186793 1.185151
 N 4.459331 -2.513571 1.455760
 C 3.357646 -3.105120 1.153146
 O 2.387085 -2.293238 0.701879
 H 0.400453 0.957197 -0.441618
 H 0.357354 -0.878775 -0.202495
 H 2.697805 1.034577 0.349662
 H 4.954181 -0.421191 1.338891
 H 3.123961 -4.156635 1.217123