12
charge = 0
 C 1.179047 0.089687 0.850017
 C 2.286482 0.031092 0.115164
 C 2.953248 -1.182209 -0.313176
 C 4.082625 -1.294026 -1.061765
 O 4.399521 -2.572756 -1.256995
 N 3.468313 -3.364841 -0.629266
 C 2.622315 -2.548180 -0.077242
 H 0.744418 1.041522 1.127293
 H 0.669447 -0.801545 1.199170
 H 2.752819 0.958778 -0.205684
 H 4.742205 -0.565837 -1.508374
 H 1.791480 -2.957206 0.479266