18
charge = 0
 C 2.710495 1.105061 0.607181
 C 2.322299 -0.085205 -0.258927
 C 3.476905 -0.991368 -0.600877
 C 4.597295 -0.366506 -1.410814
 O 5.495433 -1.326493 -1.891769
 C 3.784437 -2.127252 0.288378
 N 3.192588 -2.358552 -1.032623
 H 1.831530 1.698401 0.867381
 H 3.410822 1.766710 0.093213
 H 3.181942 0.777114 1.537034
 H 1.864055 0.270878 -1.189553
 H 1.558288 -0.677804 0.257155
 H 5.162437 0.339238 -0.795477
 H 4.145032 0.204625 -2.238802
 H 4.947344 -2.095980 -2.109915
 H 3.155123 -2.267059 1.162055
 H 4.807346 -2.471775 0.389915
 H 2.203440 -2.568322 -0.962554