14
charge = 0
 C 0.962199 0.032349 0.143801
 C 2.454346 -0.088171 0.148443
 C 3.122639 -1.243007 0.136364
 C 4.603073 -1.480661 0.139504
 O 4.738391 -2.911764 0.121574
 N 3.499174 -3.494767 0.108886
 C 2.593333 -2.592180 0.116755
 H 0.652991 1.077445 0.154924
 H 0.513148 -0.450792 1.016888
 H 0.520286 -0.429973 -0.744066
 H 3.026668 0.835216 0.162733
 H 5.100211 -1.101842 1.037294
 H 5.107695 -1.078814 -0.743982
 H 1.554438 -2.891148 0.108572