18
charge = 0
 C 0.761049 0.086217 -0.016704
 C 2.279639 0.126977 -0.040839
 C 2.940098 0.061840 -1.400829
 N 4.374071 0.213137 -1.411018
 C 2.419541 -0.848455 -2.484109
 C 2.311639 0.641050 -2.640999
 O 3.124977 1.305538 -3.539853
 H 0.397728 0.136483 1.011771
 H 0.371065 -0.835704 -0.453929
 H 0.323454 0.927779 -0.558043
 H 2.673010 -0.699537 0.565242
 H 2.617574 1.049171 0.449965
 H 4.843160 -0.640693 -1.136061
 H 4.662875 0.945808 -0.773075
 H 1.520584 -1.421158 -2.291708
 H 3.157391 -1.345652 -3.103307
 H 1.327454 1.088945 -2.572700
 H 4.027781 1.120374 -3.231383