16
charge = 0
 C 3.137174 0.186221 -1.183498
 C 2.314082 -0.111995 0.058563
 C 3.066987 -0.966058 1.066965
 N 2.333216 -1.352560 2.295635
 C 2.250972 -2.773952 1.900791
 C 3.147550 -2.450915 0.712751
 O 3.677902 -3.087838 -0.143291
 H 2.565687 0.783479 -1.896691
 H 3.444575 -0.735667 -1.681202
 H 4.041776 0.744721 -0.929504
 H 1.381936 -0.618980 -0.218307
 H 2.026137 0.822258 0.554356
 H 4.042316 -0.513438 1.284654
 H 1.430920 -0.902081 2.374404
 H 1.261493 -3.134902 1.595476
 H 2.670457 -3.474594 2.628599