10
charge = 0
 C 1.098708 -0.049157 -0.045674
 C 2.297557 0.011162 -0.048586
 C 3.706592 0.079622 -0.052004
 N 4.458761 1.134627 -0.055651
 C 5.740624 0.642479 -0.057772
 C 5.696146 -0.708257 -0.055256
 O 4.397220 -1.084695 -0.051545
 H 0.035046 -0.096330 -0.043102
 H 6.601731 1.291221 -0.060947
 H 6.431424 -1.494471 -0.055574