11
charge = 0
 C 2.847389 -1.021052 0.405593
 C 2.263282 0.072593 -0.073564
 C 2.914883 1.025165 -0.945627
 N 2.399903 2.109061 -1.445611
 C 3.440263 2.602337 -2.172501
 N 4.524681 1.890041 -2.136503
 O 4.182468 0.833523 -1.318333
 H 2.307180 -1.697795 1.055419
 H 3.874129 -1.270193 0.164544
 H 1.236807 0.323297 0.166364
 H 3.391615 3.516622 -2.745391