18
charge = 0
 C 0.819027 0.395638 -0.205372
 C 2.295526 0.068271 -0.047215
 C 2.957806 0.476927 1.268145
 N 4.364991 0.126378 1.332757
 C 2.665962 1.914577 1.727075
 O 1.763904 1.456574 2.741552
 C 2.176716 0.099942 2.537162
 H 0.457763 0.058237 -1.179315
 H 0.629684 1.468914 -0.138963
 H 0.208998 -0.091857 0.557777
 H 2.861202 0.540502 -0.860726
 H 2.442518 -1.012821 -0.167327
 H 4.866476 0.563599 0.566204
 H 4.478742 -0.874523 1.208212
 H 2.174620 2.581313 1.011863
 H 3.544787 2.408572 2.154784
 H 1.323534 -0.575400 2.421076
 H 2.826623 -0.255133 3.343910