11
charge = 0
 C 1.358540 -0.190945 0.785314
 C 2.302545 0.093435 -0.104366
 C 2.955750 -0.919944 -0.911562
 N 3.881798 -0.614145 -1.779900
 O 4.238975 -1.829426 -2.325779
 C 3.485508 -2.741891 -1.724578
 N 2.676203 -2.266822 -0.847783
 H 0.890896 0.589844 1.371928
 H 1.033317 -1.212230 0.945665
 H 2.637309 1.110588 -0.274818
 H 3.622578 -3.771176 -2.023111