16
charge = 0
 C 3.936700 0.432586 0.657996
 C 2.628181 -0.082850 0.067215
 C 2.822621 -0.984383 -1.100592
 N 2.437692 -2.196075 -1.073628
 O 2.700889 -2.812767 -2.281971
 C 3.549853 -1.956284 -3.060982
 C 3.408544 -0.584304 -2.426324
 H 3.741009 1.084523 1.511589
 H 4.511027 1.008642 -0.071531
 H 4.561228 -0.394964 1.001211
 H 2.012486 0.768775 -0.247222
 H 2.059525 -0.629855 0.821835
 H 3.220682 -2.012249 -4.098636
 H 4.577926 -2.328808 -2.988761
 H 2.711298 0.073983 -2.957469
 H 4.357328 -0.054162 -2.333700