18
charge = 0
 C 2.802332 1.153967 -0.562243
 C 2.214234 -0.233879 -0.358557
 C 2.928913 -0.997937 0.715974
 O 2.694185 -2.398010 0.780677
 C 4.000249 -1.944754 0.424725
 C 5.086638 -2.263250 1.403696
 N 5.481578 -3.654299 1.258411
 H 2.259586 1.701460 -1.335203
 H 3.851095 1.098909 -0.865122
 H 2.753283 1.745285 0.356216
 H 2.257404 -0.812133 -1.285985
 H 1.155835 -0.155771 -0.087168
 H 2.946990 -0.514373 1.694731
 H 4.254280 -2.126572 -0.619598
 H 4.733169 -1.993952 2.410824
 H 5.953587 -1.631664 1.180750
 H 4.698114 -4.255729 1.484469
 H 6.230306 -3.885199 1.898491