18
charge = 0
 C 3.074597 -1.274761 0.464257
 C 2.441408 -0.032402 -0.141006
 C 3.348505 1.167080 -0.058651
 O 2.752167 2.363581 -0.586875
 C 3.200131 3.130202 0.537784
 C 3.582704 1.863698 1.303123
 N 4.851216 1.871908 1.974267
 H 2.405449 -2.134044 0.390673
 H 3.305187 -1.130491 1.523715
 H 4.006218 -1.535935 -0.045157
 H 1.501798 0.207117 0.368084
 H 2.189584 -0.208486 -1.192118
 H 4.305552 0.957590 -0.565603
 H 2.411608 3.764162 0.951147
 H 4.070028 3.752650 0.288385
 H 2.809133 1.576165 2.020649
 H 5.611146 2.028511 1.323142
 H 5.028869 0.999775 2.454585