18
charge = 0
 C 2.631002 -0.381649 -1.591340
 C 2.448060 0.042953 -0.143980
 C 2.974823 -0.904590 0.904926
 O 2.864189 -0.390886 2.205207
 C 2.853044 -2.402283 0.785997
 C 4.203063 -1.752095 0.721957
 N 5.151070 -1.977589 1.772304
 H 2.196521 0.362832 -2.261427
 H 2.140778 -1.334930 -1.802620
 H 3.686084 -0.479385 -1.856521
 H 1.377887 0.200424 0.049207
 H 2.931441 1.011912 0.021831
 H 1.936122 -0.408973 2.456115
 H 2.442482 -2.843337 -0.114137
 H 2.616864 -2.933600 1.701712
 H 4.664741 -1.728703 -0.258880
 H 4.682230 -1.875453 2.665608
 H 5.860710 -1.253538 1.748431