12
charge = 0
 C 2.040936 0.951651 0.733749
 C 2.021700 -0.136363 -0.018740
 C 3.032330 -1.215446 0.118078
 O 2.420847 -2.485476 0.380238
 C 3.069164 -3.324961 -0.444222
 N 3.843979 -2.806205 -1.298901
 O 3.733199 -1.419280 -1.101168
 H 1.306717 1.739085 0.614498
 H 2.798812 1.094224 1.497645
 H 1.273800 -0.288721 -0.791164
 H 3.742787 -1.003082 0.932288
 H 2.881128 -4.384236 -0.353791