14
charge = 0
 C 0.911886 -0.023293 -0.042992
 C 2.424607 0.035763 -0.168640
 C 3.024491 1.093012 0.723903
 O 4.450158 1.117778 0.613272
 C 4.732475 2.356351 0.181551
 N 3.758153 3.141787 0.002735
 O 2.614886 2.405019 0.341706
 H 0.499481 -0.795670 -0.694092
 H 0.459803 0.930593 -0.320557
 H 0.607608 -0.255448 0.981401
 H 2.722854 0.256735 -1.197904
 H 2.874186 -0.924081 0.104208
 H 2.763341 0.930882 1.779154
 H 5.765272 2.616981 0.007254