16
charge = 0
 C 0.889196 0.190981 0.208243
 C 2.371940 0.210692 0.076625
 C 3.094785 0.136311 -1.045032
 C 2.552243 0.056384 -2.434303
 C 4.589599 0.229562 -0.987192
 N 5.191082 -0.244249 0.139186
 O 5.230948 0.720177 -1.896124
 H 0.576806 -0.613724 0.881754
 H 0.376053 0.051631 -0.741951
 H 0.531170 1.123697 0.656160
 H 2.909711 0.336764 1.013886
 H 1.468198 0.147452 -2.466444
 H 2.833720 -0.889413 -2.907142
 H 2.996804 0.847778 -3.040682
 H 4.709286 -0.880449 0.746939
 H 6.196769 -0.249596 0.143577