16
charge = 0
 C 0.890637 0.026484 -0.009891
 C 2.288969 -0.241616 -0.466432
 C 2.564336 -0.880130 -1.598848
 C 3.387006 0.258213 0.438831
 C 3.443773 1.749329 0.488044
 N 3.250330 2.358150 1.580392
 O 3.339656 3.731414 1.428567
 H 0.157588 -0.342834 -0.727641
 H 0.723913 1.097525 0.139700
 H 0.702599 -0.452833 0.956621
 H 1.776109 -1.238606 -2.251839
 H 3.586438 -1.070470 -1.908268
 H 4.349305 -0.122287 0.082017
 H 3.235752 -0.108464 1.458816
 H 3.644708 2.305111 -0.430686
 H 3.183200 4.058005 2.318798