16
charge = 0
 C 1.051916 0.150260 -0.101563
 C 2.541935 0.038831 -0.130493
 C 3.088629 -0.761906 -1.267892
 C 3.287335 0.630324 0.814792
 C 4.725824 0.606925 0.911662
 N 5.296886 1.220071 1.873154
 O 6.670467 1.090787 1.807142
 H 0.589463 -0.841392 -0.043837
 H 0.679047 0.610837 -1.023195
 H 0.703354 0.742617 0.744921
 H 2.683986 -1.779448 -1.244192
 H 4.174812 -0.831259 -1.271230
 H 2.773663 -0.327935 -2.222961
 H 2.789301 1.191131 1.600839
 H 5.334158 0.075650 0.179518
 H 6.973022 1.587909 2.572026