16
charge = 0
 C 1.064206 -0.126465 -0.074348
 C 2.547068 0.042559 0.024846
 C 3.038195 0.529084 1.347254
 C 3.322392 -0.238653 -1.030357
 C 4.796986 -0.130098 -1.110216
 N 5.298379 -0.489237 -2.325189
 O 5.537083 0.236143 -0.214194
 H 0.558839 0.823168 0.129949
 H 0.710691 -0.833652 0.683181
 H 0.750466 -0.483025 -1.056053
 H 2.568901 1.490981 1.580866
 H 4.118581 0.635319 1.368152
 H 2.721121 -0.164728 2.133480
 H 2.828342 -0.585827 -1.934650
 H 4.714914 -0.794435 -3.080971
 H 6.293047 -0.442344 -2.457749