18
charge = 0
 C 1.061679 0.042036 0.016714
 C 2.588972 -0.023067 0.104794
 C 3.146681 1.339384 0.525865
 C 2.995156 -1.076888 1.126686
 C 3.169444 -0.420161 -1.260587
 N 2.894367 0.423347 -2.288589
 O 3.833100 -1.421677 -1.429112
 H 0.644277 0.262160 1.002798
 H 0.645814 -0.910207 -0.320720
 H 0.715703 0.821184 -0.667332
 H 2.784300 1.593428 1.525455
 H 2.839452 2.142872 -0.148451
 H 4.238674 1.325463 0.556362
 H 2.591828 -0.813887 2.108096
 H 4.080505 -1.152701 1.203362
 H 2.619526 -2.061796 0.846569
 H 2.348522 1.256190 -2.176425
 H 3.257501 0.195032 -3.197206