18
charge = 0
 C 0.937168 0.164981 0.016741
 C 2.451369 0.025050 0.144464
 C 3.172264 0.848561 -0.918936
 C 2.924119 0.387713 1.538952
 C 3.596736 -0.624647 2.409914
 N 2.714066 1.585006 1.908884
 O 3.179251 1.825639 3.196587
 H 0.605329 -0.146405 -0.977188
 H 0.641028 1.204241 0.171688
 H 0.414895 -0.446807 0.756243
 H 2.708945 -1.027963 -0.009501
 H 2.944129 1.908631 -0.792540
 H 2.857779 0.542412 -1.920110
 H 4.256181 0.728042 -0.851780
 H 3.680603 -1.588091 1.908911
 H 3.042555 -0.752853 3.343602
 H 4.594603 -0.280159 2.694378
 H 2.954070 2.749728 3.331181