18
charge = 0
 C 1.092267 -0.382212 0.504978
 C 2.433712 -0.148587 -0.174220
 C 2.793379 -1.307568 -1.092031
 C 2.445610 1.170645 -0.955542
 C 2.292488 2.371505 -0.092080
 N 1.327363 3.171657 -0.265738
 O 1.363490 4.225510 0.634513
 H 1.104809 -1.307101 1.086883
 H 0.293385 -0.465534 -0.238700
 H 0.830398 0.437670 1.177360
 H 3.205076 -0.080856 0.604792
 H 2.056858 -1.407688 -1.895576
 H 2.814759 -2.252544 -0.543617
 H 3.773757 -1.164854 -1.554169
 H 1.649088 1.171398 -1.705705
 H 3.398803 1.249618 -1.493532
 H 3.022285 2.558622 0.700575
 H 0.591183 4.743009 0.391301