18
charge = 0
 C 0.764973 -0.102801 -0.183997
 C 2.264683 0.103033 -0.343175
 C 2.622850 0.453130 -1.779602
 C 2.777963 1.173435 0.613581
 C 2.683625 0.758611 2.068487
 N 2.367008 1.750855 2.937932
 O 2.902373 -0.375709 2.439923
 H 0.407203 -0.892791 -0.848738
 H 0.216351 0.812173 -0.432869
 H 0.508798 -0.388207 0.838676
 H 2.767275 -0.829834 -0.068547
 H 2.154080 1.394729 -2.084404
 H 2.279337 -0.322687 -2.468260
 H 3.703058 0.561115 -1.909089
 H 2.251447 2.119437 0.441655
 H 3.839857 1.364386 0.417936
 H 2.181078 2.687761 2.633659
 H 2.341861 1.537672 3.920132