16
charge = 0
 C 1.026916 0.118232 -0.150224
 C 2.427511 0.262800 0.337768
 C 3.550927 -0.234053 -0.532628
 C 3.910895 -1.647925 -0.189660
 C 3.794649 -2.677184 -1.016622
 N 2.587049 0.778992 1.489070
 O 3.926222 0.843830 1.861638
 H 0.819263 -0.928077 -0.394502
 H 0.877960 0.699151 -1.065720
 H 0.319813 0.456720 0.605907
 H 4.420954 0.411383 -0.383512
 H 3.248228 -0.174308 -1.581051
 H 4.279025 -1.803981 0.821094
 H 3.429664 -2.552870 -2.031772
 H 4.067694 -3.680820 -0.711877
 H 3.882029 1.277410 2.717579