14
charge = 0
 C 0.950496 0.073527 0.096802
 C 2.401225 0.071792 0.072267
 C 3.603022 0.077602 0.053970
 C 5.059463 0.069366 0.014897
 C 5.590493 -0.623769 -1.200665
 N 6.404682 -0.015841 -1.951939
 O 6.808272 -0.799546 -3.017451
 H 0.576215 0.392233 1.072845
 H 0.554130 -0.924884 -0.104015
 H 0.546024 0.753557 -0.656916
 H 5.439795 -0.438585 0.910411
 H 5.454306 1.088729 0.033803
 H 5.265532 -1.641510 -1.421310
 H 7.402246 -0.218672 -3.500700