14
charge = 0
 C 1.127298 -0.115969 -0.290672
 C 2.572879 -0.067237 -0.170509
 C 3.770437 -0.002882 -0.071488
 C 5.215939 0.050868 0.048554
 C 5.952274 -1.287225 0.139553
 N 5.176076 -2.387415 0.098815
 O 7.159207 -1.313555 0.241108
 H 0.823506 -0.659129 -1.188937
 H 0.711539 0.892668 -0.353760
 H 0.675401 -0.610058 0.572955
 H 5.509627 0.617334 0.937314
 H 5.655545 0.579303 -0.802637
 H 4.177843 -2.306522 0.013515
 H 5.614238 -3.289682 0.155309