16
charge = 0
 C 2.147075 -0.613905 1.311518
 C 2.813750 0.044544 0.107092
 C 3.240434 -0.943107 -0.922563
 C 4.491930 -1.114310 -1.353890
 C 4.853930 -2.093636 -2.350143
 N 6.067177 -2.206790 -2.720574
 O 6.214413 -3.192441 -3.675561
 H 1.814905 0.135861 2.032900
 H 2.837792 -1.291512 1.818169
 H 1.272733 -1.195863 1.008476
 H 3.676677 0.634605 0.429256
 H 2.104884 0.748762 -0.346648
 H 2.455937 -1.576163 -1.337616
 H 5.301604 -0.505019 -0.960891
 H 4.081802 -2.734014 -2.781870
 H 7.156576 -3.173822 -3.864865