16
charge = 0
 C 2.150128 0.890923 -1.197725
 C 2.917580 -0.015456 -0.239373
 C 3.217696 0.654540 1.054120
 C 4.426913 0.835463 1.574239
 C 4.595185 1.527488 2.877125
 N 5.885212 1.642488 3.291059
 O 3.667997 1.961876 3.532271
 H 1.906522 0.362822 -2.121947
 H 2.737620 1.774747 -1.455576
 H 1.214103 1.233380 -0.749855
 H 3.843527 -0.364544 -0.705777
 H 2.310932 -0.906825 -0.036051
 H 2.376030 1.041978 1.627006
 H 5.313630 0.478319 1.055419
 H 6.652887 1.283514 2.755462
 H 6.066638 2.099998 4.166904