16
charge = 0
 C 1.733885 -1.558975 0.536720
 C 2.162912 -0.096028 0.598461
 C 3.056680 0.210875 1.764687
 C 2.530142 0.316409 3.122734
 C 1.236451 0.287895 3.436659
 N 4.295685 0.354173 1.471985
 O 5.099232 0.614431 2.567224
 H 1.079316 -1.731443 -0.320561
 H 1.197831 -1.864042 1.437239
 H 2.605660 -2.208255 0.431737
 H 1.281693 0.552281 0.638188
 H 2.709676 0.165906 -0.309108
 H 3.267773 0.435194 3.907062
 H 0.457131 0.178117 2.691064
 H 0.913201 0.380330 4.466765
 H 5.970840 0.689422 2.170745