18
charge = 0
 C 2.387100 -0.051556 1.026967
 C 1.995280 0.666355 -0.249209
 C 3.114241 0.975399 -1.196945
 C 2.795928 1.763808 -2.432423
 C 3.085016 3.253082 -2.253994
 N 4.276969 0.564767 -0.886796
 O 5.235040 0.916974 -1.834216
 H 1.506411 -0.228315 1.648130
 H 3.104625 0.534092 1.603743
 H 2.854910 -1.012851 0.809975
 H 1.491399 1.613156 -0.013566
 H 1.248841 0.080219 -0.801069
 H 1.739757 1.619212 -2.677575
 H 3.386596 1.375441 -3.264814
 H 2.508353 3.673430 -1.426245
 H 2.823101 3.807277 -3.157953
 H 4.143614 3.416235 -2.047974
 H 6.033518 0.521564 -1.475926