18
charge = 0
 C 1.134054 0.107854 -0.327372
 C 2.644154 -0.015451 -0.218859
 C 3.130888 -0.096940 1.219232
 C 4.648051 -0.227121 1.325313
 C 5.126112 -0.244964 2.733583
 N 5.750093 -1.249203 3.184596
 O 6.104123 -1.082023 4.514540
 H 0.810373 0.162932 -1.369185
 H 0.773691 1.007116 0.180137
 H 0.634310 -0.750326 0.130574
 H 3.120617 0.839792 -0.712186
 H 2.981515 -0.904772 -0.763433
 H 2.661882 -0.952126 1.718770
 H 2.799809 0.794601 1.765867
 H 5.114850 0.619419 0.805228
 H 4.990146 -1.138927 0.828934
 H 4.923609 0.611657 3.382017
 H 6.563134 -1.900927 4.719664