14
charge = 0
 C 1.053842 -0.047092 0.391990
 C 2.363212 -0.071471 0.138000
 C 2.946342 -0.356332 -1.149775
 C 4.267807 -0.370434 -1.361269
 N 4.874424 -0.636428 -2.570758
 C 6.221952 -0.649051 -2.778584
 O 6.740587 -0.882259 -3.840258
 H 0.674871 0.173687 1.381669
 H 0.322397 -0.247617 -0.384115
 H 3.060858 0.135907 0.947351
 H 2.268005 -0.566696 -1.973976
 H 4.963223 -0.163436 -0.553386
 H 4.302763 -0.840135 -3.378673
 H 6.792127 -0.418863 -1.859726