16
charge = 0
 C 0.717678 0.226775 -0.033030
 C 2.139171 0.005774 0.350803
 C 2.685120 -1.088758 0.891895
 C 1.949583 -2.343363 1.227085
 N 4.057030 -1.085570 1.177822
 C 4.817111 -2.070520 1.720910
 O 6.003952 -1.959301 1.927934
 H 0.632619 0.457172 -1.100127
 H 0.296547 1.082669 0.504659
 H 0.079333 -0.632911 0.168365
 H 2.806269 0.845752 0.162963
 H 0.897319 -2.253234 0.971777
 H 2.018676 -2.571329 2.294711
 H 2.356139 -3.200093 0.681837
 H 4.570978 -0.243794 0.957290
 H 4.256564 -2.986759 1.962398