18
charge = 0
 C 1.249249 0.759569 0.066087
 C 2.140587 -0.104788 -0.763277
 C 3.422366 0.032544 -1.098604
 C 4.473288 1.078571 -0.816382
 N 5.705024 0.510547 -0.270837
 C 4.094759 2.264637 0.046498
 O 3.899522 1.842366 1.385977
 H 0.601835 0.134079 0.686962
 H 0.584041 1.352437 -0.572241
 H 1.795345 1.428053 0.727407
 H 1.650672 -0.989854 -1.166247
 H 3.825132 -0.760527 -1.729724
 H 4.733285 1.513780 -1.792447
 H 5.998899 -0.285785 -0.823617
 H 5.508354 0.166177 0.662576
 H 3.191896 2.746684 -0.348724
 H 4.922807 2.978969 -0.008252
 H 4.083929 2.579623 1.970134