18
charge = 0
 C 2.872427 -0.754556 -1.338444
 C 2.677196 -0.678157 0.145666
 C 2.061193 -1.647345 0.814843
 C 3.205996 0.569932 0.815034
 N 2.976813 0.704736 2.243760
 C 4.711547 0.753110 0.598096
 O 5.153364 1.943374 1.188942
 H 2.314327 -1.587346 -1.767373
 H 3.926738 -0.888483 -1.597909
 H 2.543269 0.168849 -1.825927
 H 1.684226 -2.526950 0.305261
 H 1.902238 -1.601539 1.885760
 H 2.721714 1.432094 0.336334
 H 3.282043 -0.128231 2.734835
 H 1.996936 0.841269 2.453125
 H 4.947752 0.802925 -0.466316
 H 5.234888 -0.123402 1.016374
 H 4.640643 2.013500 2.008118