16
charge = 0
 C 0.906514 -0.240879 0.165708
 C 2.342415 0.163240 0.061704
 C 2.595343 1.633180 -0.042791
 C 3.300455 -0.765053 0.066049
 N 4.669155 -0.544330 -0.023113
 C 5.609336 -1.524787 -0.014429
 O 6.797995 -1.330716 -0.090523
 H 0.433645 0.209699 1.045467
 H 0.792168 -1.323665 0.238688
 H 0.337156 0.101868 -0.705475
 H 2.091493 2.049116 -0.921851
 H 3.650577 1.900182 -0.116951
 H 2.187202 2.157024 0.828195
 H 3.040560 -1.815566 0.145095
 H 5.023861 0.396745 -0.100783
 H 5.165904 -2.534159 0.073721