18
charge = 0
 C 1.006936 0.060730 0.107291
 C 2.525955 -0.049415 0.113498
 C 3.063744 0.226920 1.515637
 C 2.950602 -1.438728 -0.356675
 N 3.021624 0.968236 -0.821748
 C 4.313187 1.215175 -1.119143
 O 5.276706 0.639684 -0.663753
 H 0.575467 -0.674847 0.787744
 H 0.602580 -0.127981 -0.891464
 H 0.682759 1.052580 0.435574
 H 2.679294 -0.518675 2.215703
 H 2.750160 1.215411 1.859825
 H 4.152708 0.184326 1.522835
 H 2.565176 -2.197741 0.328272
 H 4.037198 -1.516153 -0.388545
 H 2.555961 -1.644203 -1.354649
 H 2.337903 1.539846 -1.289021
 H 4.412458 2.037526 -1.855471