15
charge = 0
 C 0.589308 -0.488502 0.385243
 C 1.928606 -0.434555 -0.256621
 C 3.086953 -0.466500 0.399837
 C 4.407411 -0.427825 -0.239102
 N 5.492581 -0.936340 0.210772
 N 4.469553 0.187935 -1.467904
 O 5.760097 0.306905 -1.963352
 H -0.000004 0.397247 0.127424
 H 0.662017 -0.549228 1.472285
 H 0.021598 -1.352574 0.026150
 H 1.950532 -0.386389 -1.343285
 H 3.097993 -0.558939 1.482937
 H 5.355986 -1.431456 1.083330
 H 4.005556 1.085661 -1.512670
 H 6.280313 -0.133949 -1.252055