15
charge = 0
 C 0.785039 -0.982397 0.329323
 C 1.985330 -0.104900 0.166108
 C 3.014602 -0.121431 1.011595
 C 1.997373 0.786972 -1.017376
 N 1.442612 0.584109 -2.152482
 N 2.711452 1.951013 -0.876448
 O 2.579301 2.821439 -1.946206
 H 0.842427 -1.544339 1.261543
 H 0.708343 -1.705264 -0.488933
 H -0.138388 -0.397338 0.326502
 H 3.008788 -0.766264 1.883185
 H 3.895823 0.485190 0.842357
 H 0.989600 -0.318163 -2.215601
 H 2.563423 2.445984 -0.007488
 H 1.997875 2.299289 -2.546679