17
charge = 0
 C 0.983637 0.255777 -0.097840
 C 2.477726 -0.031313 0.029690
 C 3.030075 0.446715 1.366799
 C 2.746549 -1.501984 -0.180864
 N 2.446756 -2.479392 0.584781
 N 3.324182 -1.813469 -1.381550
 O 3.702888 -3.140981 -1.506587
 H 0.792448 1.326556 0.003976
 H 0.420698 -0.261755 0.682944
 H 0.599132 -0.072642 -1.065010
 H 2.991988 0.511615 -0.772845
 H 2.532373 -0.054610 2.200740
 H 2.864349 1.520162 1.481612
 H 4.101503 0.254397 1.453014
 H 1.965692 -2.188859 1.427061
 H 4.073720 -1.208810 -1.688430
 H 3.374793 -3.508797 -0.653582