17
charge = 0
 C 0.984477 -0.581387 1.326685
 C 1.605338 0.335986 0.327332
 C 2.865767 1.059414 0.688881
 C 2.591387 2.461383 1.226743
 N 3.842167 3.094034 1.615698
 N 0.998056 0.455378 -0.784925
 O 1.642349 1.335823 -1.650209
 H 1.663276 -1.407741 1.559067
 H 0.046637 -0.985719 0.947789
 H 0.792915 -0.053425 2.266171
 H 3.501987 1.137150 -0.197119
 H 3.411534 0.495853 1.449710
 H 1.960605 2.389177 2.118657
 H 2.019899 3.019554 0.472614
 H 4.418741 3.256444 0.798221
 H 3.667088 3.999500 2.033148
 H 1.092258 1.290285 -2.436163