18
charge = 0
 C 2.183912 0.616213 1.397430
 C 2.581857 0.019592 0.051221
 C 2.636154 1.038473 -1.043611
 C 1.385673 1.724653 -1.490118
 N 3.784755 1.273796 -1.541958
 O 3.733503 2.239634 -2.531161
 C 5.028457 2.428286 -3.054405
 H 2.124865 -0.161574 2.161722
 H 1.209080 1.107916 1.350282
 H 2.917226 1.356918 1.723953
 H 1.859302 -0.756410 -0.229599
 H 3.561579 -0.456614 0.122710
 H 0.506541 1.297548 -1.007664
 H 1.277827 1.643921 -2.574030
 H 1.428600 2.793140 -1.262483
 H 4.933468 3.196776 -3.822019
 H 5.411401 1.506118 -3.501316
 H 5.721230 2.765913 -2.278051