18
charge = 0
 C 3.142576 -0.812501 1.175159
 C 2.597007 0.065168 0.061674
 C 3.029616 -0.387647 -1.333902
 C 4.494176 -0.253065 -1.558789
 N 5.197852 -1.263765 -1.856343
 O 6.526533 -0.933213 -2.029018
 C 7.255928 -2.093692 -2.360727
 H 2.808818 -0.461188 2.154043
 H 4.235190 -0.822630 1.177370
 H 2.807801 -1.846867 1.058490
 H 2.912562 1.103110 0.218008
 H 1.503373 0.072496 0.098820
 H 2.507374 0.220702 -2.082281
 H 2.744674 -1.429233 -1.504953
 H 4.962219 0.730569 -1.461546
 H 8.289703 -1.770487 -2.484018
 H 6.893566 -2.533693 -3.294321
 H 7.195614 -2.839272 -1.562564