12
charge = 0
 C 1.021455 0.033943 -0.085777
 C 2.352507 0.034227 -0.073241
 C 3.194946 0.975322 -0.879562
 C 3.889190 2.043759 -0.067239
 O 3.738956 2.215889 1.106730
 C 3.056758 -0.907297 0.742064
 N 3.650605 -1.672675 1.364758
 H 0.473845 0.735324 -0.704263
 H 0.451041 -0.659220 0.518806
 H 2.582372 1.486629 -1.630736
 H 3.968227 0.435041 -1.439193
 H 4.567899 2.692159 -0.661750