12
charge = 0
 C 1.192832 0.374964 -0.086869
 C 2.310036 1.039921 0.160973
 C 3.486788 0.464612 0.920278
 C 3.040924 -0.635164 1.876248
 O 3.407155 -1.769634 1.842717
 C 4.547889 0.036175 0.018309
 N 5.383505 -0.274750 -0.705932
 H 0.384212 0.837097 -0.639983
 H 1.042088 -0.651247 0.232821
 H 2.435620 2.057528 -0.194205
 H 3.900299 1.259500 1.557927
 H 2.313750 -0.271483 2.630718