14
charge = 0
 C 1.069178 0.586773 -0.066028
 C 2.503991 0.221713 0.036673
 C 3.060648 -0.681079 0.853626
 C 2.338567 -1.521569 1.867011
 O 2.318153 -2.860427 1.416924
 C 4.471401 -0.900797 0.775957
 N 5.608767 -1.083901 0.746963
 H 0.735857 0.481442 -1.102841
 H 0.925729 1.639477 0.198463
 H 0.419995 -0.018914 0.563695
 H 3.172858 0.751141 -0.637063
 H 1.322211 -1.141366 2.010047
 H 2.862961 -1.435482 2.826032
 H 2.335674 -3.445462 2.177131