18
charge = 0
 C 3.815318 2.145652 0.219830
 C 3.371579 0.740695 0.471393
 C 2.851818 0.346715 1.629293
 C 3.554868 -0.243333 -0.652947
 O 3.178143 0.338605 -1.876648
 C 5.006579 -0.723483 -0.751954
 N 5.155004 -1.502516 -1.973896
 H 3.668064 2.766217 1.104453
 H 3.255067 2.572583 -0.614870
 H 4.872075 2.192169 -0.061271
 H 2.753072 1.027090 2.467961
 H 2.502915 -0.670377 1.775490
 H 2.924936 -1.123792 -0.443228
 H 3.671749 -0.165248 -2.543605
 H 5.273565 -1.262475 0.165518
 H 5.661282 0.148389 -0.830390
 H 4.809307 -2.446495 -1.854534
 H 6.119928 -1.563077 -2.266605