14
charge = 0
 C 1.019225 0.157941 -0.225265
 C 2.476799 0.029134 0.080243
 C 3.031201 0.432936 1.216935
 C 3.287117 -0.593264 -1.037018
 O 3.257454 0.185256 -2.214559
 C 4.672886 -0.887873 -0.642045
 N 5.765134 -1.098543 -0.353235
 H 0.496219 0.685716 0.572011
 H 0.560954 -0.829904 -0.342154
 H 0.861108 0.692265 -1.165109
 H 2.430314 0.890373 1.994788
 H 4.090469 0.312594 1.413862
 H 2.826727 -1.547023 -1.319444
 H 3.638483 1.046211 -2.010919