14
charge = 0
 C 0.920337 -0.065951 0.051842
 C 2.455064 -0.054959 0.097974
 C 3.033821 -1.075377 -0.892634
 C 2.923357 1.331585 -0.336068
 O 3.575190 2.090882 0.312200
 C 2.916648 -0.353619 1.450454
 N 3.261108 -0.625719 2.512259
 H 0.579956 0.202781 -0.951029
 H 0.498138 0.639758 0.768254
 H 0.547119 -1.063948 0.285158
 H 2.722444 -0.820302 -1.908433
 H 2.661551 -2.073901 -0.660062
 H 4.123584 -1.092014 -0.851803
 H 2.583765 1.582792 -1.365832