16
charge = 0
 C 0.952738 0.080333 0.043953
 C 2.481478 0.067084 0.005428
 C 2.997288 -0.385731 -1.361462
 C 3.013330 1.475660 0.343593
 O 4.410495 1.557237 0.380599
 C 2.989497 -0.839010 1.039009
 N 3.420867 -1.511304 1.867446
 H 0.577945 0.785763 -0.701437
 H 0.580984 0.381512 1.025051
 H 0.549122 -0.906578 -0.186678
 H 2.586795 0.269081 -2.133834
 H 2.688813 -1.409941 -1.576783
 H 4.084816 -0.328870 -1.401994
 H 2.562323 1.809269 1.287231
 H 2.681413 2.154279 -0.446644
 H 4.728786 1.059206 1.140632