14
charge = 0
 C 0.907168 -0.049800 -0.114109
 C 2.428381 -0.050960 0.023173
 C 3.083513 -1.006461 -0.972192
 C 2.967563 1.341924 -0.162279
 O 3.570086 1.976484 0.658229
 C 2.707887 1.944157 -1.492177
 N 2.501301 2.402314 -2.526769
 H 0.525170 -1.058498 0.054726
 H 0.601057 0.260667 -1.116310
 H 0.437626 0.617201 0.611600
 H 2.708612 -0.327975 1.042820
 H 2.847595 -0.727031 -2.002127
 H 2.709348 -2.018575 -0.806276
 H 4.169393 -1.023046 -0.859908