16
charge = 0
 C 0.862217 -0.118913 0.024038
 C 2.378730 -0.022069 -0.048066
 C 2.838910 0.635528 -1.339909
 C 2.938395 0.687939 1.193638
 O 4.340512 0.649972 1.283653
 C 2.444854 2.074288 1.278817
 N 2.076077 3.162778 1.313668
 H 0.477771 -0.705229 -0.812787
 H 0.399834 0.870811 -0.022957
 H 0.533172 -0.601635 0.948135
 H 2.802459 -1.031235 0.003815
 H 2.473763 1.664260 -1.411113
 H 2.453831 0.086827 -2.201777
 H 3.928255 0.646840 -1.432420
 H 2.574912 0.164226 2.083247
 H 4.711896 1.187536 0.577628