12
charge = 0
 C 0.906245 0.013713 0.043872
 C 2.354316 0.034382 0.055389
 C 3.555442 0.049833 0.060753
 C 5.015671 0.079694 0.089379
 O 5.546005 1.094114 0.905981
 C 5.539806 -1.248110 0.475856
 N 5.961295 -2.270123 0.788640
 H 0.504071 0.860143 0.605518
 H 0.527201 -0.905735 0.495687
 H 0.525842 0.074779 -0.978296
 H 5.393996 0.288714 -0.917399
 H 5.139111 1.023507 1.775918