14
charge = 0
 C 1.063569 -0.298479 0.007438
 C 2.565143 -0.084580 -0.039092
 C 2.961628 1.389914 0.017445
 C 4.469287 1.608318 0.155943
 O 5.228822 0.739745 0.463184
 C 2.467540 2.158130 -1.117660
 N 2.102794 2.758414 -2.027990
 H 0.828196 -1.363435 -0.029880
 H 0.562675 0.183077 -0.835722
 H 0.632302 0.104169 0.928093
 H 2.988615 -0.522629 -0.946541
 H 3.057249 -0.580719 0.799706
 H 2.527744 1.852879 0.918254
 H 4.809525 2.647315 -0.025766