14
charge = 0
 C 0.958896 0.308665 -0.020597
 C 2.454064 0.033506 -0.030053
 C 2.792246 -1.442007 -0.152181
 C 2.516167 -2.241585 1.085895
 O 2.188566 -1.802260 2.152942
 C 2.705184 -3.700213 0.924479
 N 2.855945 -4.830957 0.777903
 H 0.761977 1.380304 0.046288
 H 0.472142 -0.170729 0.830486
 H 0.484888 -0.058332 -0.935371
 H 2.910872 0.427813 0.881575
 H 2.921390 0.558324 -0.867782
 H 3.856286 -1.597804 -0.377427
 H 2.257798 -1.918416 -0.983856