16
charge = 0
 C 1.166429 0.125099 -0.448399
 C 2.677609 0.150965 -0.292760
 C 3.144153 -0.599177 0.944671
 C 4.655234 -0.572742 1.153648
 O 5.053734 -1.144067 2.375340
 C 5.352285 -1.212671 0.023622
 N 5.875823 -1.744684 -0.850911
 H 0.851825 0.672385 -1.339116
 H 0.670866 0.579169 0.413962
 H 0.797192 -0.899712 -0.541376
 H 3.023769 1.189348 -0.236483
 H 3.147198 -0.281742 -1.181934
 H 2.814240 -1.643859 0.895470
 H 2.700238 -0.164169 1.845297
 H 4.994763 0.467155 1.193724
 H 4.797142 -2.071700 2.380145