16
charge = 0
 C 1.476146 0.892162 -0.559434
 C 2.265526 0.052254 0.095040
 C 2.965909 -1.112620 -0.524644
 C 4.471716 -1.075223 -0.355057
 O 4.753222 -1.201863 1.032011
 N 6.105427 -1.129180 1.241595
 C 6.406647 -1.247961 2.464023
 H 0.992160 1.723027 -0.059236
 H 1.281599 0.777613 -1.621903
 H 2.436998 0.200026 1.158503
 H 2.744248 -1.155110 -1.595049
 H 2.597825 -2.046077 -0.082029
 H 4.887490 -0.133038 -0.726132
 H 4.942856 -1.901814 -0.897310
 H 7.460379 -1.200411 2.709701
 H 5.660351 -1.390865 3.244411