16
charge = 0
 C 0.554009 0.015836 0.110611
 C 2.028332 0.030556 0.316243
 C 2.908221 0.608379 -0.491815
 C 4.378319 0.564154 -0.281064
 O 4.856042 1.905469 -0.203062
 N 6.225106 1.913632 -0.265492
 C 6.701515 3.078900 -0.144447
 H 0.179207 -1.008953 0.023277
 H 0.269506 0.561664 -0.790685
 H 0.036161 0.465689 0.963484
 H 2.399510 -0.482599 1.202760
 H 2.565163 1.137430 -1.378899
 H 4.884500 0.067869 -1.116807
 H 4.627705 0.025895 0.639794
 H 7.779982 3.168334 -0.190599
 H 6.076522 3.959464 -0.001911