14
charge = 0
 C 1.071606 -0.009657 -0.061042
 C 2.520990 0.013996 -0.039575
 C 3.721968 0.036811 -0.018250
 C 5.171676 0.040680 -0.015716
 O 5.630262 1.047062 0.883173
 N 7.002705 1.044172 0.879975
 C 7.480341 1.917194 1.659750
 H 0.708420 -0.852925 -0.653717
 H 0.669094 0.907079 -0.498500
 H 0.666825 -0.110806 0.948806
 H 5.558827 0.246589 -1.019744
 H 5.559596 -0.933662 0.301340
 H 8.560376 1.978442 1.713985
 H 6.855114 2.582014 2.254015