18
charge = 0
 C 1.012746 0.951457 -0.208915
 C 2.440346 0.483090 -0.433718
 C 3.027280 -0.216416 0.782840
 C 4.444994 -0.676742 0.547200
 O 4.899171 -1.313110 1.734103
 N 6.186360 -1.749288 1.567075
 C 6.634546 -2.323977 2.600842
 H 0.611449 1.450316 -1.093869
 H 0.956211 1.656518 0.625004
 H 0.354670 0.110401 0.026218
 H 3.069844 1.339986 -0.699585
 H 2.472597 -0.195096 -1.294095
 H 2.409827 -1.081144 1.049153
 H 3.008852 0.458507 1.645431
 H 5.102319 0.168912 0.315185
 H 4.497482 -1.385684 -0.286875
 H 7.649635 -2.697586 2.546038
 H 6.045660 -2.446443 3.508957