15
charge = 0
 C 0.966312 -0.138200 0.114798
 C 2.415963 0.140956 -0.036263
 C 3.110657 0.035366 -1.164122
 C 4.559327 0.342653 -1.190080
 O 5.202849 0.701696 -0.220781
 N 5.135638 0.189763 -2.413030
 N 6.483175 0.428368 -2.642505
 H 0.801380 -0.922757 0.860228
 H 0.506928 -0.450212 -0.824542
 H 0.440024 0.748785 0.481762
 H 2.965844 0.460133 0.846975
 H 2.629076 -0.278127 -2.087606
 H 4.600843 -0.107471 -3.209772
 H 7.021154 -0.160957 -2.014071
 H 6.687430 1.384494 -2.367281