15
charge = 0
 C 0.920995 0.111037 -0.094608
 C 2.398445 -0.097856 -0.080842
 C 3.014467 -1.089759 -0.719266
 C 3.160307 0.850756 0.791586
 O 2.692328 1.306197 1.818634
 N 4.410156 1.173552 0.363474
 N 5.184071 2.115167 1.035619
 H 0.667935 1.090572 -0.510744
 H 0.536965 0.099967 0.927648
 H 0.419834 -0.659841 -0.680198
 H 2.456139 -1.800297 -1.318982
 H 4.083548 -1.248496 -0.637958
 H 4.662343 1.012921 -0.596282
 H 5.579854 1.672418 1.858817
 H 4.556524 2.835662 1.384002