14
charge = 0
 C 1.090134 -0.036847 0.204890
 C 2.572481 0.169558 -0.091977
 C 2.902565 1.589094 -0.427415
 C 2.945270 2.593601 0.669792
 O 2.784774 2.281406 1.822946
 N 3.134660 1.868667 -1.653636
 O 3.416206 3.191627 -1.891139
 H 0.894496 -1.082905 0.449144
 H 0.479369 0.227490 -0.661336
 H 0.769731 0.570790 1.052509
 H 2.882986 -0.455169 -0.931424
 H 3.161262 -0.120283 0.782790
 H 3.138163 3.637793 0.377415
 H 3.564094 3.211000 -2.840756