12
charge = 0
 C 1.042362 -0.160317 0.072274
 C 2.368707 -0.042177 0.066114
 C 3.073388 0.115306 -1.169560
 N 3.662681 0.256371 -2.148851
 C 3.212697 -0.025843 1.295557
 C 2.891482 -0.841999 2.459639
 O 3.939321 -1.209401 1.578915
 H 0.471679 -0.157118 -0.847913
 H 0.500910 -0.257402 1.005060
 H 3.787143 0.888233 1.439499
 H 2.020835 -1.491729 2.436919
 H 3.205174 -0.507004 3.444858