16
charge = 0
 C 0.324671 -0.459316 -0.129172
 C 1.460413 -0.004715 0.380094
 C 2.502986 0.721317 -0.402369
 N 3.793010 0.066567 -0.270286
 C 4.866495 0.734667 -0.964073
 C 6.207633 0.178301 -0.559532
 O 7.166357 0.136451 -1.278620
 H -0.407221 -0.973763 0.482569
 H 0.082099 -0.325185 -1.179143
 H 1.687914 -0.159510 1.432312
 H 2.613492 1.737722 -0.002479
 H 2.173036 0.827332 -1.449102
 H 3.713221 -0.893171 -0.585287
 H 4.874213 1.787905 -0.648351
 H 4.798224 0.735619 -2.062498
 H 6.247456 -0.188421 0.489047