18
charge = 0
 C 0.832305 0.256696 -0.211701
 C 2.336087 0.158209 -0.003595
 C 2.983942 1.528856 0.122498
 N 2.643695 -0.664648 1.149774
 C 3.338378 -1.829234 1.079860
 C 3.540228 -2.519038 2.409899
 O 3.766222 -2.285100 0.037564
 H 0.603924 0.845315 -1.103190
 H 0.349579 0.745866 0.640810
 H 0.391377 -0.734367 -0.332231
 H 2.781500 -0.373813 -0.847110
 H 2.590706 2.070207 0.989330
 H 2.782239 2.134084 -0.764293
 H 4.065449 1.438021 0.237641
 H 2.322961 -0.355616 2.052438
 H 4.091295 -1.876696 3.101437
 H 4.102630 -3.435115 2.246951
 H 2.579872 -2.763525 2.870798