18
charge = 0
 C 1.134759 0.099063 0.021287
 C 2.614021 -0.048892 0.189466
 C 3.351594 -0.715041 -0.946652
 N 4.168251 0.255901 -1.687001
 C 3.260296 0.413235 1.260767
 C 4.747732 0.327440 1.464337
 O 5.473594 1.239878 0.670963
 H 0.890243 0.650720 -0.893935
 H 0.685377 0.625328 0.864383
 H 0.650827 -0.879640 -0.068852
 H 2.629720 -1.235917 -1.589620
 H 4.033914 -1.475238 -0.553441
 H 3.580189 0.979777 -2.084153
 H 4.646451 -0.196791 -2.457431
 H 2.682859 0.926143 2.026650
 H 5.085993 -0.705166 1.279163
 H 4.990663 0.554936 2.504459
 H 5.206006 1.057846 -0.250080