18
charge = 0
 C 2.646915 1.629009 -0.139999
 C 2.322883 0.160986 0.075635
 C 2.940388 -0.762241 -0.966547
 N 4.386141 -0.758718 -0.968647
 C 5.111036 -1.616829 -0.207912
 C 6.610052 -1.473028 -0.308718
 O 4.595366 -2.455128 0.505719
 H 2.172851 2.255416 0.618479
 H 2.297803 1.974157 -1.118284
 H 3.723330 1.812544 -0.084026
 H 1.237857 0.013773 0.053666
 H 2.660590 -0.161972 1.064647
 H 2.598213 -0.483140 -1.968339
 H 2.626396 -1.790286 -0.778558
 H 4.874010 -0.071100 -1.513369
 H 6.934000 -0.691165 -0.997583
 H 7.028786 -2.428050 -0.629138
 H 7.006190 -1.260339 0.685394