15
charge = 0
 C 0.833634 -0.003006 0.288437
 C 2.294515 0.188496 0.085316
 C 3.086262 -0.680643 -0.541918
 N 4.445394 -0.474526 -0.707635
 C 5.142107 -1.358178 -1.308799
 N 6.456835 -1.121995 -1.553304
 O 6.978875 -0.015593 -0.903882
 H 0.258565 0.809031 -0.168844
 H 0.575911 -0.005234 1.352833
 H 0.488864 -0.945012 -0.143669
 H 2.748111 1.097033 0.473234
 H 2.661590 -1.604173 -0.948438
 H 4.769142 -2.306447 -1.705946
 H 7.089848 -1.905672 -1.475542
 H 6.180838 0.346329 -0.462333