17
charge = 0
 C 1.062195 -0.022007 0.000018
 C 2.586627 0.020410 0.104019
 C 3.057480 -0.817801 1.287844
 N 3.123043 -0.435607 -1.180976
 C 3.002721 1.461171 0.227999
 N 3.625319 1.886326 1.241733
 O 3.900843 3.240790 1.148240
 H 0.727446 -1.051356 -0.160379
 H 0.716283 0.582763 -0.840413
 H 0.599208 0.346585 0.916828
 H 2.736710 -1.853730 1.148584
 H 2.649437 -0.451164 2.231500
 H 4.145895 -0.798092 1.369658
 H 2.761547 -1.358015 -1.396417
 H 4.132334 -0.515719 -1.128324
 H 2.751859 2.124219 -0.602450
 H 4.370446 3.422797 1.966736