17
charge = 0
 C 1.246597 0.349101 -0.147270
 C 2.537818 0.062138 0.603538
 C 2.626341 0.884309 1.880949
 N 2.600519 -1.346567 0.929995
 C 3.576472 -2.037418 0.514379
 N 3.700293 -3.346271 0.891254
 O 2.571314 -3.854512 1.523519
 H 1.171953 1.410594 -0.395319
 H 0.385369 0.076878 0.468002
 H 1.195889 -0.226534 -1.073779
 H 3.385974 0.338489 -0.045472
 H 1.804500 0.624204 2.552636
 H 2.566492 1.952515 1.658227
 H 3.564617 0.692369 2.405242
 H 4.398528 -1.672372 -0.110267
 H 3.996144 -3.982767 0.162552
 H 1.994272 -3.061457 1.560814