17
charge = 0
 C 0.985568 -0.045967 -0.150735
 C 2.472004 -0.103101 0.185901
 C 2.799023 0.702697 1.446925
 N 2.471558 2.107202 1.265012
 C 2.918847 -1.515598 0.359203
 N 3.836138 -1.995321 -0.367880
 O 4.106305 -3.318486 -0.054135
 H 0.654045 0.991499 -0.202216
 H 0.394402 -0.549389 0.620763
 H 0.780161 -0.535121 -1.104894
 H 3.050177 0.316169 -0.645494
 H 3.852196 0.523862 1.710308
 H 2.195371 0.319760 2.277647
 H 3.117887 2.538390 0.614960
 H 2.552665 2.610047 2.138924
 H 2.439825 -2.135228 1.123259
 H 4.800828 -3.549825 -0.676659