17
charge = 0
 C 3.027066 1.431291 0.918120
 C 2.973385 0.625623 -0.369599
 C 3.429877 -0.828620 -0.234115
 N 2.933917 -1.727949 -1.273353
 C 4.956215 -0.946297 -0.127132
 N 5.443104 -2.132824 -0.542314
 O 5.651562 -0.057514 0.323561
 H 2.647860 2.443273 0.757514
 H 4.048763 1.498401 1.289016
 H 2.409237 0.967656 1.693696
 H 3.575945 1.116460 -1.141665
 H 1.942478 0.603630 -0.740613
 H 3.053738 -1.218857 0.721124
 H 3.074581 -1.312434 -2.188184
 H 1.937238 -1.867977 -1.168137
 H 4.812016 -2.792724 -0.966175
 H 6.432308 -2.298427 -0.490144