17
charge = 0
 C 2.271017 0.901241 -1.306875
 C 2.516315 -0.094681 -0.177696
 C 2.909481 0.564042 1.106621
 N 1.991830 1.289140 1.811317
 C 0.573975 1.037360 1.752915
 N 4.144777 0.466151 1.443332
 O 4.374520 1.160158 2.649049
 H 1.994438 0.380187 -2.226053
 H 3.174827 1.481434 -1.502617
 H 1.471919 1.605723 -1.066433
 H 3.332135 -0.767349 -0.444994
 H 1.627564 -0.714540 -0.019383
 H 2.349897 1.613082 2.695996
 H 0.210049 1.084140 0.725393
 H 0.057459 1.816900 2.314249
 H 0.283923 0.065758 2.174192
 H 5.303074 0.984751 2.812096