17
charge = 0
 C 2.361764 -0.938220 -1.457043
 C 2.403080 0.272544 -0.542045
 C 3.275557 0.067995 0.689772
 N 4.662445 -0.106673 0.340335
 C 5.260832 -1.170778 0.676322
 N 6.547061 -1.390122 0.268181
 O 7.152083 -0.273550 -0.296815
 H 1.723179 -0.757947 -2.324534
 H 1.969523 -1.815809 -0.933654
 H 3.360176 -1.186586 -1.823430
 H 1.391767 0.524307 -0.205627
 H 2.778363 1.142157 -1.090691
 H 2.894155 -0.787410 1.271590
 H 3.194096 0.953928 1.329093
 H 4.825825 -1.995204 1.250809
 H 7.162143 -1.796581 0.960971
 H 6.416651 0.376648 -0.277722