16
charge = 0
 C 0.958924 0.070140 0.063154
 C 2.482060 0.066360 -0.016582
 C 3.039100 -1.242892 0.569222
 N 2.886032 0.296284 -1.393246
 C 3.090782 1.189696 0.808808
 O 2.476520 1.362902 1.988623
 O 4.055377 1.829346 0.486165
 H 0.568796 -0.722341 -0.580534
 H 0.561178 1.019908 -0.296083
 H 0.606259 -0.105807 1.079386
 H 2.645697 -2.085418 -0.005944
 H 2.747283 -1.378674 1.612988
 H 4.129391 -1.260632 0.503272
 H 2.814647 -0.560547 -1.927047
 H 3.847422 0.615165 -1.421944
 H 2.968133 2.054400 2.453671