15
charge = 0
 C 1.661122 1.680534 2.215454
 C 1.997939 1.209287 1.022627
 C 2.468820 -0.189035 0.766423
 N 3.878037 -0.280181 0.387334
 N 4.738402 0.203152 1.355912
 C 5.604241 -0.631308 1.984878
 O 6.318388 -0.302707 2.900422
 H 1.346760 2.708498 2.355438
 H 1.676397 1.046382 3.096869
 H 1.970430 1.872988 0.158908
 H 1.899112 -0.641835 -0.051285
 H 2.321200 -0.808826 1.654345
 H 4.046666 0.203714 -0.487317
 H 4.603229 1.130961 1.742137
 H 5.582356 -1.642813 1.540946