15
charge = 0
 C 0.671582 0.450763 -0.170486
 C 2.082484 0.035936 -0.406923
 C 3.129136 0.750707 -0.011572
 N 4.469640 0.411343 -0.205615
 N 4.765834 -0.777749 -0.870234
 C 5.490379 1.200690 0.231655
 O 6.660328 0.938395 0.081186
 H 0.131727 -0.297483 0.418869
 H 0.126332 0.557656 -1.113847
 H 0.612190 1.403140 0.361077
 H 2.266328 -0.897285 -0.928535
 H 3.007996 1.692711 0.514698
 H 5.348741 -1.338162 -0.255407
 H 5.347450 -0.547321 -1.670515
 H 5.129261 2.111260 0.740538