17
charge = 0
 C 2.348354 -0.020914 -1.387205
 C 2.625088 0.322970 0.072526
 C 3.284977 -0.794142 0.834298
 N 2.741851 -1.509790 1.751659
 N 4.553707 -1.140793 0.474196
 C 5.564592 -0.213413 0.051566
 O 5.105902 -2.121627 1.288914
 H 1.829726 0.802375 -1.882746
 H 1.721291 -0.911618 -1.461238
 H 3.269615 -0.221404 -1.936794
 H 1.686865 0.546773 0.584349
 H 3.232240 1.231053 0.138140
 H 1.778042 -1.254470 1.921139
 H 5.980166 0.353178 0.894334
 H 5.148832 0.473330 -0.683509
 H 6.370110 -0.775487 -0.421838
 H 4.336131 -2.324410 1.874489