15
charge = 0
 C 2.021546 0.076690 1.546292
 C 2.259660 -0.030384 0.041814
 C 3.274911 0.960069 -0.462859
 N 3.019184 2.048130 -1.064052
 N 4.618240 0.696171 -0.222917
 C 5.195000 -0.407792 0.332462
 O 6.384744 -0.534875 0.474508
 H 1.243807 -0.622988 1.857111
 H 1.698273 1.084294 1.814323
 H 2.921279 -0.147106 2.122209
 H 1.328447 0.169561 -0.491976
 H 2.554172 -1.049609 -0.224357
 H 2.018124 2.159535 -1.194110
 H 5.252585 1.420529 -0.535708
 H 4.474218 -1.181135 0.642181