17
charge = 0
 C 1.320946 0.408016 0.249318
 C 2.815899 0.557445 0.020753
 C 3.182640 0.455556 -1.455047
 N 4.587649 0.607958 -1.784675
 N 5.413314 -0.363719 -1.260673
 C 6.035825 -1.286179 -2.044078
 O 5.997558 -1.364042 -3.242404
 H 1.067144 0.485216 1.308375
 H 0.963365 -0.561402 -0.108079
 H 0.761973 1.181827 -0.283903
 H 3.345313 -0.215415 0.589923
 H 3.157229 1.524103 0.410450
 H 2.647687 1.226847 -2.019046
 H 2.855086 -0.507626 -1.858349
 H 4.941094 1.526130 -1.548349
 H 5.495284 -0.475963 -0.258616
 H 6.615603 -1.987532 -1.408699