18
charge = 0
 C 1.052345 0.490666 -0.084244
 C 2.495033 0.124120 0.190633
 C 2.782190 -0.069340 1.662976
 N 4.197226 -0.307333 1.873661
 O 2.829017 -1.109007 -0.449560
 C 3.136512 -1.038527 -1.760327
 C 3.194936 -2.104235 -2.547506
 H 0.804609 1.448288 0.379552
 H 0.380525 -0.274119 0.312189
 H 0.872445 0.576487 -1.157791
 H 3.170085 0.901914 -0.190570
 H 2.125475 -0.873514 2.032251
 H 2.495861 0.847835 2.186160
 H 4.469793 -1.157482 1.395023
 H 4.397350 -0.437790 2.856578
 H 3.367362 -0.039462 -2.128802
 H 2.961492 -3.095130 -2.178922
 H 3.495244 -1.988782 -3.579090