15
charge = 0
 C 0.515999 1.243503 -0.546610
 C 1.599750 0.246035 -0.294558
 C 2.832857 0.355476 -0.792636
 N 1.259003 -0.821105 0.546639
 O -0.071207 -1.186090 0.581445
 C 2.064074 -1.372710 1.518466
 N 1.776881 -2.289361 2.341389
 H 0.910457 2.074069 -1.130055
 H 0.108091 1.622551 0.393784
 H -0.315591 0.799511 -1.097302
 H 3.113737 1.240445 -1.346807
 H 3.585826 -0.407989 -0.647379
 H -0.170041 -1.874055 -0.090280
 H 3.048109 -0.907171 1.529440
 H 0.815746 -2.603720 2.213674