17
charge = 0
 C 0.838351 0.082763 0.040554
 C 2.339240 0.257858 0.196395
 C 3.045830 -1.068106 0.401066
 N 4.478325 -0.919199 0.574919
 O 5.093861 -0.550589 -0.625241
 C 5.172679 -1.914848 1.247168
 N 6.347050 -2.332268 1.046661
 H 0.342838 1.042869 -0.114700
 H 0.396527 -0.377812 0.928582
 H 0.600214 -0.554371 -0.815530
 H 2.559938 0.910298 1.047424
 H 2.747423 0.745078 -0.693999
 H 2.838765 -1.742710 -0.441792
 H 2.672070 -1.553355 1.307483
 H 5.405852 0.347215 -0.470929
 H 4.588415 -2.308752 2.080881
 H 6.742590 -1.881761 0.221178