14
charge = 0
 C 0.588433 -0.482793 -0.364341
 C 1.040241 0.755138 0.331883
 C 0.035473 1.600612 1.046303
 N 2.286863 1.003544 0.261518
 O 2.581228 2.192553 0.956178
 C 3.889836 2.523722 0.925769
 O 4.777591 1.940581 0.396438
 H -0.158981 -0.235303 -1.124227
 H 0.108637 -1.160941 0.347855
 H 1.429095 -0.989199 -0.835596
 H -0.963642 1.175149 0.960085
 H 0.028269 2.613350 0.637159
 H 0.294596 1.690699 2.103581
 H 3.988461 3.460277 1.497495