16
charge = 0
 C 0.889190 0.254516 -0.105595
 C 2.336873 -0.058140 0.230164
 C 2.960917 0.983489 1.146887
 N 2.455401 -1.395508 0.789413
 O 1.839042 -1.598241 2.015690
 C 3.503095 -2.219077 0.523478
 O 4.287812 -2.059580 -0.381906
 H 0.823067 1.217905 -0.614392
 H 0.278583 0.320107 0.799018
 H 0.464283 -0.506354 -0.764023
 H 2.920343 -0.123174 -0.691556
 H 2.447048 1.009354 2.110072
 H 2.888804 1.974530 0.693984
 H 4.015877 0.763867 1.320269
 H 0.976373 -1.975507 1.808702
 H 3.526903 -3.072277 1.223707