14
charge = 0
 C 0.910344 0.147578 -0.321190
 C 2.434953 0.136654 -0.280396
 C 2.954383 -0.476271 0.970643
 N 3.692744 -1.501886 0.908812
 O 4.052063 -1.902432 2.208363
 C 4.834948 -3.002872 2.238301
 O 5.229956 -3.640106 1.318568
 H 0.555770 0.638490 -1.229101
 H 0.491180 0.684536 0.533565
 H 0.512289 -0.869000 -0.308131
 H 2.808545 1.165796 -0.336790
 H 2.846641 -0.407872 -1.132207
 H 2.679983 -0.039879 1.934407
 H 5.044911 -3.206526 3.300165