16
charge = 0
 C 0.884907 0.013753 -0.292912
 C 2.209385 0.702902 -0.013024
 C 3.338526 -0.298037 0.159385
 N 4.613431 0.322064 0.424476
 O 4.767526 0.846664 1.699141
 C 5.765148 -0.034162 -0.204154
 O 5.817716 -0.684404 -1.220830
 H 0.078370 0.739753 -0.410560
 H 0.608736 -0.659652 0.522982
 H 0.934576 -0.579639 -1.209661
 H 2.119448 1.311301 0.893439
 H 2.461911 1.383822 -0.832046
 H 3.485979 -0.880698 -0.752501
 H 3.109853 -0.994973 0.974940
 H 4.560833 1.784830 1.618641
 H 6.646256 0.375075 0.319884