17
charge = 0
 C 0.884171 0.003320 0.238358
 C 2.390499 0.031019 0.305490
 C 2.931989 -0.314012 1.685733
 N 2.609705 0.744736 2.629878
 O 2.860770 -0.916064 -0.656398
 N 4.175720 -0.683619 -0.956225
 C 4.639731 -1.530609 -1.773475
 H 0.480274 0.650438 1.017463
 H 0.517010 -1.012448 0.406064
 H 0.527247 0.344006 -0.734822
 H 2.766661 1.019153 0.013087
 H 4.007004 -0.516373 1.587180
 H 2.455365 -1.240021 2.023181
 H 3.197447 1.553604 2.467560
 H 2.782932 0.442532 3.579155
 H 5.673200 -1.401676 -2.070804
 H 4.045463 -2.351677 -2.172116