16
charge = 0
 C 0.680789 0.218378 -0.256690
 C 2.166544 0.010895 -0.031170
 C 2.992124 1.171433 -0.536659
 O 2.551142 2.129957 -1.107217
 C 2.507256 -0.249807 1.418475
 C 2.493677 -1.623953 1.951701
 N 3.755532 -0.904404 1.795748
 H 0.470132 0.425655 -1.306283
 H 0.319423 1.072234 0.320096
 H 0.119674 -0.666127 0.049409
 H 2.516777 -0.863452 -0.603773
 H 4.082847 1.086155 -0.336767
 H 2.228366 0.557026 2.092992
 H 2.261755 -2.425643 1.256385
 H 2.194677 -1.808328 2.977323
 H 4.246414 -1.236288 0.971420