16
charge = 0
 C 0.998176 0.246769 -0.047490
 C 2.508826 0.153003 -0.034102
 C 3.034715 -1.255747 0.030468
 O 2.316136 -2.228573 -0.019271
 C 4.511934 -1.410458 0.159063
 C 4.978503 -2.326066 1.238057
 N 5.078074 -2.714367 -0.148450
 H 0.676115 1.287334 -0.115545
 H 0.571472 -0.186883 0.858325
 H 0.582065 -0.300605 -0.894154
 H 2.943978 0.707640 0.806700
 H 2.945820 0.614310 -0.929430
 H 5.123503 -0.553365 -0.103656
 H 4.208101 -2.783911 1.850381
 H 5.917171 -2.107144 1.735103
 H 4.296813 -3.329139 -0.373396