18
charge = 0
 C 1.248576 0.363447 0.107564
 C 2.760027 0.260037 -0.010359
 C 3.227759 -0.376730 -1.313403
 O 2.816648 0.371216 -2.444464
 C 4.731705 -0.484377 -1.360850
 C 5.451989 -0.579466 -2.640226
 N 5.531676 0.637896 -1.830195
 H 0.955516 0.756888 1.082812
 H 0.771449 -0.614466 -0.010117
 H 0.824738 1.040316 -0.640569
 H 3.151761 -0.340811 0.817085
 H 3.216589 1.251420 0.076346
 H 2.812741 -1.396377 -1.374243
 H 1.859317 0.432942 -2.437078
 H 5.149486 -0.992421 -0.494908
 H 4.858551 -0.545975 -3.547073
 H 6.370700 -1.153033 -2.700263
 H 4.905384 1.329595 -2.232771