12
charge = 0
 C 1.090687 -0.095990 0.431311
 C 2.378292 -0.188334 0.117051
 C 2.942358 0.620095 -0.985784
 O 2.296355 1.390143 -1.649344
 C 4.449046 0.504745 -1.253250
 C 5.017192 -0.808902 -1.020876
 N 5.450047 -1.857053 -0.832312
 H 0.659975 -0.677624 1.237286
 H 0.440551 0.571458 -0.124345
 H 3.044828 -0.856422 0.651734
 H 4.949679 1.224873 -0.595063
 H 4.633000 0.822100 -2.280808