12
charge = 0
 C 1.059987 -0.012210 0.022030
 C 2.255584 -0.031379 0.102979
 C 3.702986 -0.076811 0.171660
 O 4.155140 0.735363 1.241315
 C 5.546330 0.795080 1.326146
 C 6.161597 -0.493735 1.675524
 N 6.635840 -1.507458 1.936437
 H -0.002488 0.005662 -0.043101
 H 4.128892 0.280319 -0.777772
 H 4.033720 -1.114998 0.313896
 H 5.787915 1.518605 2.107107
 H 6.000487 1.143372 0.387089