14
charge = 0
 C 0.560631 -0.059661 0.044530
 C 2.046268 -0.201301 0.061237
 C 2.843098 0.710500 0.609272
 O 4.197818 0.700689 0.689700
 C 4.832941 -0.411141 0.121529
 C 6.274127 -0.268741 0.288044
 N 7.414429 -0.194112 0.398923
 H 0.172885 -0.052107 -0.978591
 H 0.244144 0.866087 0.529170
 H 0.075461 -0.892296 0.562726
 H 2.459248 -1.093166 -0.399252
 H 2.456392 1.609940 1.075712
 H 4.606770 -0.492984 -0.950028
 H 4.510998 -1.342806 0.605719