12
charge = 0
 C 0.967381 0.100655 0.027581
 C 2.451732 0.110159 -0.026884
 C 3.079652 0.340395 -1.350781
 O 2.433066 0.514260 -2.350487
 C 3.228000 -0.077510 1.052406
 C 4.649281 -0.073947 1.032098
 N 5.801264 -0.080853 1.071948
 H 0.572300 -0.669283 -0.639921
 H 0.572263 1.050715 -0.340820
 H 0.601118 -0.075151 1.038519
 H 4.185910 0.343394 -1.367697
 H 2.782923 -0.247194 2.028118