16
charge = 0
 C 0.862423 0.095095 -0.123268
 C 2.382570 0.123483 -0.029486
 C 2.902981 1.552123 -0.014020
 O 2.812632 -0.578023 1.126518
 C 2.965335 -0.674475 -1.204585
 C 4.417844 -0.650477 -1.261242
 N 5.564939 -0.616327 -1.324986
 H 0.426481 0.612991 0.734753
 H 0.499346 -0.934540 -0.118517
 H 0.505703 0.590899 -1.029365
 H 2.475290 2.096534 0.833065
 H 2.622788 2.087132 -0.924397
 H 3.990320 1.564991 0.077583
 H 2.630322 -0.036012 1.898956
 H 2.577388 -0.282787 -2.148452
 H 2.638556 -1.714086 -1.116236