16
charge = 0
 C 1.078979 0.266306 -0.226828
 C 2.469829 -0.238332 0.126089
 C 2.608074 -0.538809 1.615454
 O 1.732073 -1.554529 2.058790
 C 2.806844 -1.479322 -0.712587
 C 4.202436 -1.870426 -0.601751
 N 5.312422 -2.154648 -0.504661
 H 0.815795 1.139585 0.375761
 H 0.321957 -0.505419 -0.059134
 H 1.016472 0.558386 -1.277370
 H 3.200337 0.544022 -0.109416
 H 2.461320 0.386795 2.186849
 H 3.618248 -0.897344 1.827985
 H 0.848753 -1.187959 2.139695
 H 2.587091 -1.298788 -1.768689
 H 2.184270 -2.317429 -0.384797