16
charge = 0
 C 1.256555 0.245710 -0.008414
 C 2.741694 0.039477 0.196791
 C 3.298622 -1.167707 -0.532508
 O 2.578924 -1.879505 -1.211281
 C 4.727755 -1.404666 -0.362422
 C 5.303254 -2.457494 -0.977169
 N 6.598436 -2.821567 -0.929568
 H 0.907127 1.125408 0.536393
 H 0.691468 -0.621737 0.335902
 H 1.024100 0.378641 -1.066068
 H 2.982791 -0.076530 1.260846
 H 3.313072 0.916823 -0.131223
 H 5.305506 -0.726865 0.258404
 H 4.661059 -3.092007 -1.582394
 H 7.267817 -2.297200 -0.396538
 H 6.924931 -3.626880 -1.426841