16
charge = 0
 C 2.939751 2.119465 0.621828
 C 2.476360 0.711951 0.293881
 C 2.883409 -0.316760 1.339359
 O 2.345567 -1.556130 0.978298
 C 2.510574 -2.558797 1.954993
 C 4.353665 -0.390833 1.465728
 N 5.497516 -0.455786 1.561524
 H 2.607059 2.818157 -0.147393
 H 4.028948 2.180905 0.678084
 H 2.533725 2.461822 1.577549
 H 2.870203 0.386481 -0.672310
 H 1.386320 0.666742 0.227861
 H 2.501337 -0.005827 2.325914
 H 2.023282 -3.454596 1.572690
 H 2.039013 -2.269536 2.903200
 H 3.569800 -2.775586 2.135525