15
charge = 0
 C 0.034186 -0.049344 0.587701
 C 1.436079 -0.026119 0.085688
 C 2.458991 0.407887 0.805727
 O 3.733216 0.353477 0.302885
 C 4.703881 1.051127 0.928104
 N 4.489942 1.853926 1.872943
 N 5.579411 2.435365 2.487907
 H -0.626066 0.546548 -0.050244
 H -0.032541 0.345544 1.603463
 H -0.368618 -1.067203 0.595200
 H 1.628878 -0.388768 -0.920406
 H 2.377398 0.805871 1.810203
 H 5.681193 0.817801 0.501626
 H 5.295281 3.330817 2.856922
 H 6.374380 2.561561 1.866183