15
charge = 0
 C 1.015457 -0.012196 0.073403
 C 2.532481 -0.099130 0.120048
 C 3.185991 1.263637 0.223281
 O 2.585010 2.297251 0.315687
 C 3.064474 -0.972467 1.248498
 N 2.800160 -0.482039 2.495535
 N 3.746671 -2.037791 1.114000
 H 0.696897 0.551841 -0.804173
 H 0.612490 0.509788 0.942874
 H 0.575141 -1.009375 0.029459
 H 2.909640 -0.544953 -0.807794
 H 4.295880 1.244799 0.211994
 H 2.051650 0.174939 2.621942
 H 3.003100 -1.094738 3.267582
 H 3.907268 -2.245064 0.134353