17
charge = 0
 C 1.022069 -0.122419 0.033385
 C 2.543722 -0.010847 0.112591
 C 2.970217 0.805477 1.319464
 O 3.114331 -1.319414 0.164915
 C 3.062909 0.562755 -1.176263
 N 3.465483 1.757637 -1.268218
 N 3.817245 2.235225 -2.491591
 H 0.630776 -0.612648 0.931092
 H 0.727053 -0.713972 -0.835887
 H 0.562569 0.865037 -0.042178
 H 2.570205 0.353560 2.232156
 H 2.604279 1.830102 1.250122
 H 4.057972 0.834007 1.387712
 H 2.746959 -1.768949 0.931216
 H 3.041724 -0.118744 -2.036758
 H 4.487156 2.982123 -2.398650
 H 4.120730 1.529181 -3.156898