17
charge = 0
 C 0.826426 0.148884 0.086444
 C 2.348688 0.132967 0.073640
 C 2.923678 0.795593 1.321230
 O 2.706355 -1.236828 0.059417
 C 2.864290 0.810972 -1.206837
 N 2.787141 2.180950 -1.221650
 N 3.366814 0.193927 -2.196256
 H 0.464448 -0.353842 0.985174
 H 0.441612 -0.378648 -0.787539
 H 0.433933 1.167314 0.078303
 H 2.588713 0.246514 2.203576
 H 2.609182 1.835003 1.423435
 H 4.016985 0.787685 1.294394
 H 3.656315 -1.300923 0.199526
 H 2.095657 2.630091 -0.648605
 H 2.929177 2.594910 -2.129070
 H 3.364476 -0.804460 -2.004573