17
charge = 0
 C 0.881439 -0.454167 -0.140773
 C 2.356540 -0.433950 -0.483427
 C 2.673501 -1.170661 -1.763786
 O 2.802870 0.917916 -0.683107
 C 3.069950 1.652459 0.402788
 N 2.971137 1.231398 1.587403
 N 3.229219 2.133205 2.608476
 H 0.546346 -1.483848 0.004979
 H 0.296721 -0.014453 -0.952797
 H 0.689957 0.100949 0.777400
 H 2.929653 -0.852638 0.349598
 H 2.136626 -0.726092 -2.605339
 H 2.372147 -2.216736 -1.678505
 H 3.742716 -1.135130 -1.979408
 H 3.384681 2.662566 0.126324
 H 3.541171 1.610429 3.413824
 H 3.942635 2.815663 2.363350