17
charge = 0
 C 1.447355 0.421044 -0.230787
 C 2.696796 -0.389415 0.111603
 C 3.038200 -0.303309 1.590746
 O 1.914636 -0.671643 2.370428
 C 2.566198 -1.819881 -0.387464
 N 3.046565 -2.006746 -1.662833
 N 2.089738 -2.808923 0.253472
 H 1.574761 1.466802 0.060360
 H 0.578998 0.024458 0.295227
 H 1.240120 0.391398 -1.302755
 H 3.554033 0.056497 -0.407985
 H 3.335062 0.730262 1.817258
 H 3.892460 -0.958144 1.803606
 H 2.172564 -0.679767 3.294569
 H 3.101128 -1.210728 -2.273441
 H 2.765217 -2.870846 -2.097770
 H 1.808387 -2.518248 1.184786