15
charge = 0
 C 1.351972 -0.181791 -0.129651
 C 2.848408 -0.259338 0.090325
 C 3.444865 1.042190 0.552327
 O 2.780982 2.035633 0.724049
 C 4.948334 1.094366 0.809715
 N 5.350493 2.314253 1.217237
 N 5.756437 0.116699 0.665607
 H 0.964433 -1.145781 -0.463073
 H 1.105296 0.568352 -0.882217
 H 0.835274 0.098819 0.789152
 H 3.367795 -0.560742 -0.827228
 H 3.099718 -1.026888 0.832093
 H 4.666156 3.042593 1.311356
 H 6.319196 2.476242 1.419176
 H 5.270041 -0.715896 0.353233