17
charge = 0
 C 0.492287 -0.259740 -0.420540
 C 1.705877 0.386971 0.224977
 C 2.836432 -0.598739 0.402663
 O 3.924396 0.075174 1.006404
 C 5.046492 -0.647572 1.251363
 N 5.974961 0.156002 1.828025
 N 5.272937 -1.873842 1.012941
 H -0.316959 0.462110 -0.543418
 H 0.109648 -1.084846 0.186334
 H 0.731777 -0.659096 -1.409818
 H 1.441639 0.799872 1.203004
 H 2.060403 1.223385 -0.384589
 H 3.144728 -1.007493 -0.568039
 H 2.519015 -1.435750 1.037518
 H 5.772678 1.119211 2.006606
 H 6.862187 -0.238888 2.069330
 H 4.485702 -2.339751 0.581539