14
charge = 0
 C 0.752928 0.771719 0.686820
 C 2.187703 0.760974 0.287645
 C 3.079668 1.686307 0.621727
 O 2.415973 -0.362129 -0.476605
 C 3.576668 -0.734101 -1.025549
 N 4.673793 -0.110323 -0.936142
 O 5.661348 -0.800014 -1.636331
 H 0.533313 1.647839 1.294475
 H 0.506580 -0.126939 1.258683
 H 0.108751 0.782696 -0.196500
 H 2.741711 2.513770 1.231659
 H 4.110450 1.644845 0.313735
 H 3.473143 -1.665474 -1.578239
 H 6.436570 -0.249359 -1.502178