16
charge = 0
 C 0.910191 -0.092982 -0.272363
 C 2.429908 0.051017 -0.246434
 C 3.065138 -0.528051 -1.508214
 O 2.754477 1.412743 -0.159852
 C 3.011376 -0.625995 1.005841
 N 2.821437 -1.952124 1.141665
 O 3.617120 0.036508 1.828733
 H 0.519859 0.487651 -1.110202
 H 0.475571 0.301459 0.647755
 H 0.589172 -1.130052 -0.396966
 H 2.714183 0.044454 -2.368758
 H 2.803020 -1.577040 -1.666378
 H 4.151964 -0.440571 -1.460710
 H 3.249923 1.501457 0.672668
 H 2.321997 -2.492996 0.461491
 H 3.194875 -2.410789 1.954435