16
charge = 0
 C 0.957193 -0.082830 0.242159
 C 2.455224 -0.296757 0.195265
 C 2.849554 -1.745389 0.358841
 O 2.975636 0.112104 -1.085188
 C 3.193674 1.407802 -1.287693
 N 2.964102 2.302854 -0.421001
 O 3.321032 3.559204 -0.917728
 H 0.567470 -0.396558 1.213303
 H 0.464264 -0.674675 -0.533094
 H 0.709372 0.968829 0.098808
 H 2.939164 0.319458 0.959146
 H 2.405770 -2.355262 -0.431713
 H 2.497751 -2.121739 1.321517
 H 3.933764 -1.861253 0.317441
 H 3.598009 1.622860 -2.275200
 H 3.088822 4.143063 -0.192062