16
charge = 0
 C 0.886814 0.022974 0.391578
 C 2.392281 -0.014178 0.243089
 C 3.091126 -0.642238 1.425820
 O 2.748563 -0.808599 -0.904665
 C 2.723309 -0.183565 -2.095518
 N 3.002115 -1.064069 -3.090435
 O 2.472271 0.984917 -2.262744
 H 0.611420 0.620187 1.263941
 H 0.489834 -0.986374 0.526593
 H 0.425492 0.473072 -0.488151
 H 2.766452 0.997483 0.069122
 H 2.746839 -1.667954 1.579168
 H 2.877417 -0.070661 2.331231
 H 4.172055 -0.658664 1.276291
 H 3.364807 -1.971432 -2.862964
 H 3.175082 -0.681400 -4.001067