14
charge = 0
 C 0.997239 -0.362927 0.368921
 C 2.359925 0.153031 -0.042683
 C 2.288188 1.317182 -0.994882
 O 1.244169 1.786434 -1.386806
 C 3.555136 1.920859 -1.478405
 N 4.667321 1.451533 -1.085738
 O 5.732056 2.116213 -1.620663
 H 1.099022 -1.203999 1.057138
 H 0.423874 -0.694999 -0.497886
 H 0.413780 0.416257 0.861694
 H 2.962826 -0.628037 -0.518604
 H 2.952890 0.468394 0.822751
 H 3.481259 2.762325 -2.167036
 H 6.495205 1.665043 -1.245601