16
charge = 0
 C 1.189451 0.254297 0.180261
 C 2.694788 0.209087 -0.012760
 C 3.125515 -0.701911 -1.148552
 O 2.671816 -0.256001 -2.415870
 C 4.637702 -0.940314 -1.114262
 N 5.254976 -0.808066 -2.306464
 O 5.206180 -1.237615 -0.083695
 H 0.918870 0.948024 0.978747
 H 0.803000 -0.731894 0.450694
 H 0.673340 0.571345 -0.728844
 H 3.196132 -0.137424 0.892966
 H 3.087243 1.216418 -0.210488
 H 2.672911 -1.690270 -1.003919
 H 2.701124 0.705514 -2.419238
 H 4.700218 -0.676135 -3.134034
 H 6.228433 -1.048056 -2.373841