16
charge = 0
 C 1.805700 -0.157272 1.307927
 C 2.511181 -0.262925 -0.037666
 C 3.434767 0.881847 -0.305296
 O 2.784506 2.052298 -0.414721
 C 3.398600 3.282422 -0.044743
 N 4.674659 0.623713 -0.434821
 O 5.458394 1.727077 -0.776676
 H 1.119690 -0.995165 1.447890
 H 1.228074 0.766173 1.376401
 H 2.526319 -0.171818 2.128955
 H 1.767955 -0.282916 -0.842533
 H 3.093648 -1.181893 -0.105398
 H 2.574354 3.970624 0.142460
 H 4.034955 3.666826 -0.839845
 H 3.990490 3.164679 0.864012
 H 6.335698 1.340042 -0.822745