16
charge = 0
 C 0.841492 0.040602 -0.300050
 C 2.322319 -0.090034 0.031775
 C 3.106834 0.753150 -0.948025
 O 3.586989 0.335447 -1.964291
 N 2.578429 0.400403 1.371112
 C 2.359821 -0.546269 2.444175
 C 3.732036 -0.160371 2.048954
 H 0.639186 -0.332589 -1.305064
 H 0.525477 1.084368 -0.237282
 H 0.247697 -0.535472 0.412771
 H 2.640810 -1.136471 -0.102446
 H 3.185806 1.824810 -0.662579
 H 2.032126 -1.548004 2.176156
 H 1.915059 -0.143998 3.347520
 H 4.321066 -0.902330 1.515541
 H 4.303561 0.531768 2.656712