16
charge = 0
 C 1.133964 0.879703 0.091732
 C 2.560816 0.374421 0.046522
 C 2.765393 -0.736359 -0.956154
 O 1.895627 -1.154620 -1.680903
 N 4.033199 -1.305308 -0.922955
 C 4.696121 -1.767404 -2.105835
 C 5.243048 -0.626989 -1.317458
 H 1.033826 1.682438 0.824806
 H 0.445258 0.077927 0.361404
 H 0.821412 1.259400 -0.881891
 H 2.887749 0.002276 1.022744
 H 3.256919 1.184221 -0.201753
 H 4.215623 -1.546563 -3.053545
 H 5.166061 -2.742130 -2.035701
 H 5.148839 0.364487 -1.751559
 H 6.104655 -0.769311 -0.673654