18
charge = 0
 C 0.827934 -0.154571 -0.098448
 C 2.329809 -0.027518 0.094193
 C 3.007290 0.521372 -1.138357
 O 4.397159 0.605979 -0.871310
 N 5.052570 1.103771 -1.975908
 C 6.301331 1.197806 -1.784069
 C 7.183928 1.714807 -2.859596
 H 0.348815 -0.552104 0.798256
 H 0.588235 -0.826330 -0.927239
 H 0.370978 0.814740 -0.315790
 H 2.764783 -1.002843 0.333360
 H 2.548673 0.629574 0.941537
 H 2.621150 1.516795 -1.388766
 H 2.839553 -0.132012 -2.003005
 H 6.732140 0.898405 -0.825893
 H 6.598478 1.966169 -3.743726
 H 7.938799 0.970832 -3.131931
 H 7.722174 2.606340 -2.523507