17
charge = 0
 C 0.539015 -0.848420 -0.034273
 C 1.946727 -0.970981 -0.568108
 C 2.047847 -1.905339 -1.754214
 O 2.331626 0.367274 -0.926097
 N 3.690305 0.438403 -1.185547
 C 4.402584 1.250586 -0.316810
 N 4.057115 1.694904 0.812336
 H 0.174005 -1.826077 0.285361
 H -0.131453 -0.467872 -0.808507
 H 0.501563 -0.169300 0.819059
 H 2.622476 -1.309344 0.226530
 H 1.381042 -1.578653 -2.556585
 H 1.763253 -2.918721 -1.462224
 H 3.070034 -1.942652 -2.134887
 H 3.846237 0.636805 -2.166318
 H 5.407064 1.444154 -0.702117
 H 3.086958 1.443734 1.004400