17
charge = 0
 C 2.124832 -0.042545 0.717397
 C 3.487748 -0.673780 0.520096
 C 4.346918 0.106756 -0.452462
 O 3.961233 1.123839 -1.000700
 N 5.592504 -0.391799 -0.688539
 C 6.129583 -1.587978 -0.082883
 N 6.431222 0.287480 -1.578051
 H 1.531104 -0.627826 1.422457
 H 1.583027 0.018615 -0.226990
 H 2.217762 0.974116 1.100710
 H 3.390052 -1.702478 0.155255
 H 4.020705 -0.753186 1.474309
 H 5.542303 -2.476749 -0.333714
 H 6.185990 -1.508950 1.007239
 H 7.135916 -1.717273 -0.472620
 H 6.525374 1.244125 -1.247231
 H 5.943128 0.366554 -2.466292