15
charge = 0
 C 1.004038 0.036692 0.032911
 C 2.513108 0.000069 -0.098371
 C 3.145700 1.337155 0.208346
 O 2.509093 2.315356 0.521136
 N 4.523511 1.427251 0.121250
 C 5.432933 0.444714 -0.214942
 N 6.690310 0.554563 -0.287138
 H 0.581138 -0.943190 -0.195121
 H 0.570011 0.769208 -0.648092
 H 0.706209 0.316739 1.043650
 H 2.808315 -0.300147 -1.109822
 H 2.943838 -0.750392 0.573633
 H 4.878383 2.349150 0.339128
 H 4.979932 -0.519621 -0.436250
 H 7.008781 1.497453 -0.060729