17
charge = 0
 C 1.038042 0.372114 -0.123416
 C 2.525112 0.161111 0.108365
 C 2.831539 -1.264011 0.499695
 O 4.238309 -1.367668 0.698208
 N 4.579886 -2.672627 1.017111
 C 5.425153 -3.288828 0.108409
 N 5.694348 -2.948929 -1.076535
 H 0.829191 1.405802 -0.404280
 H 0.458524 0.150237 0.776760
 H 0.664889 -0.270630 -0.925109
 H 2.885296 0.830237 0.895626
 H 3.087845 0.409706 -0.796521
 H 2.520013 -1.966218 -0.282394
 H 2.309983 -1.536760 1.425779
 H 4.890517 -2.720187 1.980358
 H 5.831485 -4.215123 0.522711
 H 5.254958 -2.053746 -1.292467