16
charge = 0
 C 0.856699 0.034737 0.014125
 C 2.320578 -0.160570 0.328449
 C 2.579067 -1.343614 1.235331
 O 2.956042 -0.333023 -0.952349
 N 4.328079 -0.317420 -0.846085
 C 4.991216 0.722784 -1.423267
 O 6.173811 0.715518 -1.654756
 H 0.297616 0.213686 0.934184
 H 0.447110 -0.855328 -0.469131
 H 0.712376 0.887125 -0.651421
 H 2.733125 0.749569 0.781259
 H 2.188189 -2.261327 0.788270
 H 2.085604 -1.193418 2.197978
 H 3.646268 -1.469062 1.427699
 H 4.758580 -1.232178 -0.886069
 H 4.319441 1.578900 -1.614526