16
charge = 0
 C 1.270194 0.172584 0.420234
 C 2.282207 -0.910283 0.099343
 C 2.755218 -1.623826 1.359343
 O 3.654211 -2.669926 1.116105
 N 1.721837 -1.833252 -0.876143
 C 2.479935 -2.539216 -1.730968
 O 3.696231 -2.532928 -1.747051
 H 1.686730 0.884139 1.134583
 H 0.367058 -0.254415 0.867579
 H 0.984229 0.721706 -0.478673
 H 3.158761 -0.461873 -0.381359
 H 1.887030 -2.038014 1.889374
 H 3.207381 -0.867325 2.018303
 H 4.012603 -2.578690 0.221279
 H 0.722861 -1.947588 -0.919674
 H 1.885516 -3.134593 -2.445744