16
charge = 0
 C 1.334800 -0.556380 0.992859
 C 2.819382 -0.304824 0.811598
 C 3.432790 -1.258301 -0.186976
 O 2.772186 -2.040816 -0.867931
 N 4.769672 -1.257295 -0.326295
 C 5.760555 -0.352224 0.158449
 O 5.252241 -2.104867 -1.304061
 H 0.914910 0.156702 1.704809
 H 1.151393 -1.565335 1.364016
 H 0.804421 -0.457967 0.045759
 H 3.342578 -0.394563 1.768535
 H 2.991224 0.720292 0.464207
 H 5.329790 0.264625 0.943450
 H 6.126518 0.292122 -0.647657
 H 6.604052 -0.911884 0.569980
 H 4.410768 -2.515374 -1.603642