14
charge = 0
 C 0.883943 0.268434 0.236866
 C 2.372081 0.065353 0.047131
 C 2.697916 -1.162876 -0.768437
 O 1.871223 -1.909984 -1.226740
 N 4.059613 -1.368350 -0.956039
 C 4.598987 -2.419627 -1.665551
 O 5.783774 -2.565968 -1.807286
 H 0.694375 1.164440 0.830023
 H 0.435533 -0.585159 0.746228
 H 0.379279 0.376094 -0.723792
 H 2.884576 -0.026875 1.012157
 H 2.828593 0.929447 -0.450264
 H 4.722455 -0.719485 -0.556884
 H 3.831552 -3.090843 -2.075111