16
charge = 0
 C 0.934458 1.994620 -0.444235
 C 2.190972 1.146481 -0.551160
 C 2.099048 -0.096139 0.299690
 O 3.316075 -0.823201 0.138866
 N 3.304234 -1.969881 0.900256
 C 3.341069 -3.163694 0.247990
 O 3.617742 -4.208692 0.780765
 H 1.014272 2.889289 -1.063953
 H 0.758585 2.319617 0.584659
 H 0.050575 1.442017 -0.773553
 H 3.066521 1.724035 -0.240106
 H 2.362102 0.851073 -1.590582
 H 1.255682 -0.726864 -0.005454
 H 1.964593 0.160464 1.358205
 H 3.800695 -1.887917 1.778705
 H 3.051076 -3.057028 -0.812794