13
charge = 0
 C 0.233395 -0.885945 -0.943202
 C 1.216508 -0.312141 -0.262242
 C 2.608056 -0.427929 -0.754679
 O 2.933762 -1.022568 -1.760645
 N 3.583011 0.189903 -0.002497
 N 3.341182 0.872757 1.123618
 C 4.324980 1.397563 1.728101
 H -0.796041 -0.821434 -0.612107
 H 0.448953 -1.435186 -1.853258
 H 1.044575 0.244363 0.649496
 H 4.529826 0.096383 -0.360515
 H 4.121091 1.947926 2.638048
 H 5.357382 1.319607 1.375582