13
charge = 0
 C 0.908240 -0.147352 -0.099922
 C 2.363351 -0.440631 -0.168065
 C 2.809176 -1.426375 -1.207836
 O 2.013245 -1.950104 -1.944424
 N 3.153676 0.150788 0.648939
 N 4.495769 -0.186462 0.510425
 C 5.216574 0.424723 1.354888
 H 0.345606 -1.065866 0.085558
 H 0.554386 0.236498 -1.060166
 H 0.710131 0.577012 0.687409
 H 3.886427 -1.637954 -1.256583
 H 6.286238 0.239355 1.341644
 H 4.789500 1.119079 2.081052