17
charge = 0
 C 1.102050 -0.978694 -0.125765
 C 2.139155 -0.183345 -0.900318
 C 3.308923 0.213750 -0.028030
 O 3.178631 0.633779 1.106055
 N 4.531835 0.089881 -0.608852
 N 5.675071 0.594136 0.005810
 C 6.313517 -0.402767 0.855590
 H 0.220788 -1.168885 -0.740918
 H 0.796098 -0.429197 0.764699
 H 1.505225 -1.941234 0.196701
 H 1.694049 0.747527 -1.268991
 H 2.485616 -0.738462 -1.777332
 H 4.599199 -0.043966 -1.604108
 H 5.361421 1.365255 0.588079
 H 6.715654 -1.204823 0.233957
 H 5.634704 -0.832608 1.600769
 H 7.148743 0.077141 1.369384