14
charge = 0
 C 0.833852 -0.087850 -0.504919
 C 2.328049 -0.065988 -0.258207
 C 2.672846 0.272280 1.166455
 O 1.908150 0.507180 2.046762
 O 4.038056 0.268330 1.297464
 N 4.475672 0.570922 2.583901
 C 5.736705 0.548199 2.628223
 H 0.624104 -0.336146 -1.546716
 H 0.386246 0.882087 -0.284605
 H 0.342581 -0.825290 0.131093
 H 2.832814 0.661096 -0.902408
 H 2.789591 -1.031151 -0.490263
 H 6.182568 0.770829 3.590790
 H 6.363977 0.321002 1.767331