14
charge = 0
 C 2.432630 -1.266815 -0.003506
 C 2.463929 0.062955 -0.035005
 N 2.865783 0.829007 -1.114003
 C 2.950750 2.276886 -1.288923
 C 3.464350 2.017336 -2.719222
 C 3.319709 0.532706 -2.380885
 O 3.506753 -0.510012 -2.941016
 H 2.099994 -1.767488 0.895152
 H 2.731661 -1.863356 -0.854678
 H 2.162712 0.657386 0.822118
 H 3.665759 2.757029 -0.616456
 H 1.984035 2.782211 -1.224910
 H 4.489064 2.330420 -2.917847
 H 2.812571 2.355525 -3.524408