16
charge = 0
 C 2.914842 0.513984 -1.114266
 C 2.303589 -0.154649 0.105556
 N 3.009552 0.128661 1.322481
 C 3.195297 1.349842 2.094086
 C 3.994878 0.507549 3.110705
 C 3.695875 -0.675997 2.184789
 O 3.935160 -1.853532 2.171616
 H 2.342274 0.264478 -2.010227
 H 3.944655 0.183094 -1.262094
 H 2.916027 1.602047 -1.013497
 H 2.318143 -1.241741 -0.004041
 H 1.254397 0.146467 0.215053
 H 2.262778 1.777375 2.475448
 H 3.767732 2.125717 1.578255
 H 3.551569 0.419725 4.102151
 H 5.053332 0.750979 3.197904