18
charge = 0
 C 3.134024 -0.015393 -1.147700
 C 2.218303 0.071984 0.055809
 N 2.744859 -0.647953 1.185552
 C 1.944992 -0.701273 2.413666
 C 2.473433 -2.127073 2.645482
 O 3.595902 -2.214424 3.479822
 C 2.784666 -2.115826 1.138779
 H 2.722509 0.547874 -1.987912
 H 3.259682 -1.051368 -1.473406
 H 4.121302 0.386254 -0.910248
 H 1.211244 -0.302957 -0.213583
 H 2.094202 1.118561 0.353906
 H 0.860461 -0.694296 2.219151
 H 2.184129 0.051914 3.170145
 H 1.761801 -2.870110 3.000905
 H 4.233765 -1.560683 3.175428
 H 1.961640 -2.548623 0.546731
 H 3.732394 -2.561019 0.824091