18
charge = 0
 C 1.044702 0.196617 0.027129
 C 2.568619 0.130942 0.015830
 N 3.138197 -0.297837 -1.251933
 C 3.159732 1.475842 0.393377
 C 4.680771 1.647773 0.335089
 C 4.375061 2.753729 -0.674319
 O 2.968952 2.460166 -0.644784
 H 0.613475 -0.768271 -0.251507
 H 0.694257 0.946095 -0.687695
 H 0.659730 0.464345 1.015561
 H 2.901585 -0.577967 0.785849
 H 2.857209 0.357406 -1.973537
 H 2.777039 -1.206161 -1.513968
 H 2.707721 1.818572 1.333153
 H 5.192345 0.784789 -0.087362
 H 5.159388 1.961681 1.261633
 H 4.794721 2.626267 -1.676463
 H 4.575995 3.772712 -0.326652