18
charge = 0
 C 1.742234 0.800747 -0.519089
 C 2.792623 0.188062 0.396876
 N 2.231454 -0.604078 1.485912
 C 3.796186 -0.704808 -0.315617
 C 5.007071 -1.077548 0.491901
 C 3.862644 -0.781889 -1.773536
 O 3.194788 -1.789689 -1.030134
 H 1.007750 1.347461 0.077251
 H 1.212839 0.021050 -1.073621
 H 2.176352 1.505437 -1.233023
 H 3.369091 1.000178 0.857042
 H 1.714953 -1.385205 1.095358
 H 1.576449 -0.051362 2.024604
 H 4.701980 -1.480295 1.458691
 H 5.632207 -0.197982 0.669056
 H 5.600365 -1.824908 -0.036550
 H 4.797216 -1.093471 -2.235817
 H 3.222810 -0.165010 -2.397494