18
charge = 0
 C 1.107546 0.735097 0.139854
 C 2.408741 0.715295 -0.633899
 N 3.478791 0.141989 0.160354
 C 4.743913 0.080385 -0.503680
 C 5.882174 -0.614471 0.244699
 O 6.234014 -1.381570 -0.913812
 C 5.047117 -0.966796 -1.601005
 H 0.312385 1.198760 -0.447469
 H 1.223521 1.291978 1.071735
 H 0.783401 -0.279324 0.390860
 H 2.701351 1.739186 -0.892146
 H 2.260005 0.185494 -1.590860
 H 3.211673 -0.779483 0.489995
 H 5.015111 1.088635 -0.827511
 H 5.529233 -1.251801 1.066592
 H 6.709730 0.004447 0.601019
 H 4.301622 -1.772817 -1.652023
 H 5.263881 -0.608914 -2.611694