18
charge = 0
 C 0.850761 0.111310 0.002590
 C 2.372005 0.026869 0.033975
 N 2.922424 -0.275416 1.351228
 C 2.917017 -0.999670 -0.954037
 C 2.620125 -0.691694 -2.389671
 C 2.531909 -1.734166 -3.406133
 O 1.361954 -1.105092 -2.912423
 H 0.495118 0.863466 0.712207
 H 0.409318 -0.851314 0.279493
 H 0.474209 0.371820 -0.988909
 H 2.778478 1.005768 -0.252749
 H 2.580164 -1.178133 1.665097
 H 2.594097 0.402840 2.029047
 H 2.513165 -1.991596 -0.716794
 H 4.002582 -1.051438 -0.820353
 H 2.918819 0.302353 -2.725534
 H 2.659743 -2.773217 -3.110228
 H 2.782922 -1.507901 -4.439616