20
charge = 0
 C 1.080492 -0.211672 0.070969
 C 2.502419 -0.162642 -0.477974
 N 2.582782 -0.486222 -1.900437
 C 3.137865 1.209898 -0.244511
 C 4.659886 1.239887 -0.117925
 C 5.458746 0.466431 -1.159270
 O 5.516199 -0.926691 -0.902781
 H 0.618750 -1.181969 -0.130867
 H 0.459371 0.559022 -0.399066
 H 1.056725 -0.043872 1.151751
 H 3.104715 -0.914484 0.040866
 H 1.859998 0.012737 -2.408374
 H 2.427004 -1.474423 -2.053900
 H 2.715262 1.656176 0.662011
 H 2.828878 1.860768 -1.071940
 H 4.949908 0.865207 0.873163
 H 4.984785 2.286521 -0.141837
 H 6.475441 0.879282 -1.215745
 H 4.997060 0.562878 -2.142353
 H 6.022533 -1.054512 -0.096688