18
charge = 0
 C 0.786181 -0.256359 -0.505919
 C 2.231924 0.136427 -0.193045
 N 2.703049 1.301837 -0.921575
 C 2.410646 0.309189 1.285428
 C 2.995575 1.336026 1.891051
 C 3.133217 1.451869 3.371818
 O 4.485295 1.569785 3.778563
 H 0.662637 -0.444028 -1.575593
 H 0.102046 0.547022 -0.217405
 H 0.488802 -1.161307 0.031600
 H 2.873428 -0.703231 -0.497201
 H 2.110173 2.099662 -0.717716
 H 2.641536 1.136884 -1.918539
 H 1.994201 -0.491872 1.895851
 H 3.439050 2.131273 1.297015
 H 2.642598 0.599416 3.862490
 H 2.645677 2.362435 3.733116
 H 4.973944 0.849982 3.369972