18
charge = 0
 C 1.060794 -0.275377 0.481331
 C 2.488126 -0.154831 -0.025568
 N 3.128343 -1.458374 -0.263599
 C 2.660973 0.696323 -1.264337
 C 1.644187 1.201311 -1.953397
 C 4.086827 0.978374 -1.665034
 O 4.805408 -0.167275 -2.056940
 H 1.039745 -0.882221 1.390053
 H 0.419121 -0.761413 -0.258946
 H 0.630967 0.700352 0.718527
 H 3.088198 0.326790 0.758975
 H 2.569978 -1.997064 -0.917924
 H 3.178592 -1.990427 0.597048
 H 0.609400 1.041972 -1.673339
 H 1.820808 1.809494 -2.833947
 H 4.590416 1.481424 -0.821162
 H 4.097081 1.674288 -2.507402
 H 4.556837 -0.860145 -1.419437