20
charge = 0
 C 1.485687 0.098271 3.136838
 C 2.959155 0.168373 2.791980
 N 3.256407 -0.683193 1.653326
 C 4.657133 -0.803017 1.250419
 C 5.438234 0.499097 1.145141
 C 5.338181 -1.794735 2.189564
 O 4.579536 -2.967165 2.312347
 H 1.257651 0.729647 3.998122
 H 1.189047 -0.926516 3.369336
 H 0.869839 0.445016 2.301329
 H 3.549907 -0.180517 3.644561
 H 3.244617 1.218204 2.624178
 H 2.685518 -0.412956 0.863264
 H 4.632160 -1.276802 0.262657
 H 5.559671 0.981115 2.118393
 H 4.940978 1.206971 0.477009
 H 6.437582 0.309359 0.745251
 H 5.501178 -1.323913 3.172696
 H 6.322981 -2.059267 1.793446
 H 3.662338 -2.663361 2.220723