18
charge = 0
 C 1.001463 -0.006433 -0.097914
 C 2.514432 0.014562 -0.145526
 N 3.074933 -1.146982 0.516259
 C 4.519286 -1.207511 0.445652
 C 5.039079 -2.430527 1.168289
 C 6.530521 -2.513673 1.260128
 O 7.293357 -1.687219 0.839281
 H 0.585149 0.887100 -0.567510
 H 0.649172 -0.053163 0.934514
 H 0.602046 -0.874937 -0.630617
 H 2.888101 0.904881 0.372308
 H 2.852705 0.103535 -1.193401
 H 2.676036 -1.986488 0.109735
 H 4.926433 -0.311129 0.923277
 H 4.905606 -1.198658 -0.587256
 H 4.691706 -3.360220 0.695272
 H 4.640831 -2.470470 2.190904
 H 6.914944 -3.424777 1.769886