15
charge = 0
 C 1.107525 -0.023588 -0.003035
 C 2.600056 -0.086426 0.009631
 N 3.100585 -1.241657 0.534325
 C 3.347740 0.935929 -0.467746
 C 4.780217 0.966672 -0.497583
 N 5.411353 1.973483 -0.966117
 O 6.785901 1.776856 -0.890686
 H 0.707932 -0.110263 1.012717
 H 0.690521 -0.847071 -0.592039
 H 0.761349 0.915274 -0.430358
 H 2.482395 -1.954229 0.868617
 H 4.085063 -1.411551 0.602377
 H 2.833290 1.803227 -0.860146
 H 5.365270 0.124496 -0.117522
 H 7.137403 2.587940 -1.266436