15
charge = 0
 C 0.864749 -0.047619 0.083424
 C 2.355773 -0.135548 0.136362
 N 2.865012 -1.325409 0.491692
 C 3.139176 0.939813 -0.161906
 C 4.585513 0.875616 -0.116862
 N 5.249365 2.021114 -0.437675
 O 5.223664 -0.136560 0.188962
 H 0.433162 -0.278163 1.061892
 H 0.464288 -0.770736 -0.633204
 H 0.539548 0.948138 -0.211910
 H 2.266544 -2.099600 0.705358
 H 3.878285 -1.392508 0.529622
 H 2.654579 1.866322 -0.440088
 H 4.769599 2.863228 -0.691376
 H 6.252745 2.008022 -0.415762