17
charge = 0
 C 1.067553 0.942057 -0.080330
 C 2.228154 0.045746 0.331777
 N 2.297156 -0.223863 1.764313
 C 2.197417 -1.287064 -0.401180
 C 2.445039 -1.159703 -1.889707
 N 1.901610 -2.144590 -2.649644
 O 3.098367 -0.260105 -2.375848
 H 1.114861 1.898118 0.447277
 H 0.109562 0.470657 0.165979
 H 1.086375 1.150070 -1.152552
 H 3.162585 0.538934 0.049164
 H 1.416761 -0.611540 2.088297
 H 2.429203 0.642432 2.272847
 H 1.247692 -1.803136 -0.214522
 H 2.988786 -1.924001 0.008353
 H 1.412421 -2.919617 -2.242576
 H 2.117469 -2.162805 -3.631427