17
charge = 0
 C 1.137232 -0.459847 0.647726
 C 2.646555 -0.375570 0.569119
 N 3.066113 0.809446 -0.153117
 C 4.504911 0.971063 -0.209510
 C 4.863165 2.145939 -1.050896
 N 5.551223 3.084119 -0.553203
 O 5.796568 4.089010 -1.471160
 H 0.825446 -1.370522 1.163322
 H 0.698799 -0.458093 -0.352190
 H 0.723240 0.389543 1.199401
 H 3.038006 -1.247716 0.033373
 H 3.074810 -0.419730 1.586320
 H 2.653251 1.631991 0.272347
 H 4.920659 0.067851 -0.674497
 H 4.986531 1.077589 0.775034
 H 4.510586 2.187535 -2.082894
 H 6.315826 4.721482 -0.967085