14
charge = 0
 C 0.915583 0.068049 -0.009114
 C 2.407572 -0.016208 0.065082
 N 2.874768 -0.831842 1.029430
 C 3.173963 0.700483 -0.803058
 C 4.611821 0.744997 -0.881426
 O 5.258717 -0.037315 0.040078
 O 5.254729 1.397123 -1.670435
 H 0.486573 -0.920726 -0.196819
 H 0.598696 0.739293 -0.804006
 H 0.506564 0.432477 0.937911
 H 2.238818 -1.323341 1.627097
 H 3.866409 -0.947924 1.150589
 H 2.674231 1.319879 -1.532913
 H 6.199544 0.096054 -0.135527