16
charge = 0
 C 0.828610 0.079856 0.194604
 C 2.351322 0.041741 0.236024
 N 2.927388 0.506470 1.493249
 C 2.889636 -1.354517 -0.033500
 C 2.681523 -1.835554 -1.438439
 O 2.930511 -3.152900 -1.551727
 O 2.360797 -1.161072 -2.379744
 H 0.464880 1.093532 0.381056
 H 0.407167 -0.574392 0.965652
 H 0.446305 -0.239149 -0.777469
 H 2.735163 0.695621 -0.553149
 H 2.552665 -0.031826 2.267914
 H 2.660549 1.469291 1.660988
 H 2.458766 -2.089405 0.654954
 H 3.968987 -1.364560 0.152335
 H 2.812052 -3.375326 -2.485948