13
charge = 0
 C 0.212596 -0.523873 -0.699894
 C 1.421509 -0.270389 -0.180353
 N 1.749398 0.296286 1.027131
 C 0.883725 0.740945 1.994941
 N 1.172341 1.264496 3.110897
 C 2.608065 -0.634968 -0.984065
 O 3.736817 -0.448648 -0.606235
 H -0.722227 -0.301149 -0.204559
 H 0.160757 -0.981371 -1.679025
 H 2.747077 0.377244 1.181653
 H -0.166769 0.611821 1.737284
 H 2.180999 1.337816 3.249868
 H 2.383822 -1.094611 -1.964153