13
charge = 0
 C 2.597288 0.875976 -0.548479
 C 2.297209 -0.141733 0.248085
 N 3.146606 -1.116316 0.803004
 C 2.538941 -2.097710 1.627523
 N 3.064757 -3.061638 2.233400
 C 4.502000 -1.109028 0.551732
 O 5.293749 -1.905862 0.987523
 H 1.794753 1.523332 -0.873378
 H 3.590080 1.114434 -0.903978
 H 1.266098 -0.293315 0.547069
 H 1.462711 -1.930432 1.701391
 H 4.070675 -3.099164 2.077950
 H 4.807313 -0.282424 -0.104641