19
charge = 0
 C 1.081355 -0.069473 -0.048738
 C 2.592539 0.105698 0.040184
 N 3.303736 -0.418376 -1.123784
 C 2.964014 1.587242 0.165138
 N 2.673108 2.320117 -1.058728
 C 3.133524 -0.646875 1.261674
 O 4.534341 -0.666458 1.268087
 H 0.676014 0.455452 -0.917544
 H 0.580781 0.309073 0.847990
 H 0.821471 -1.127031 -0.152248
 H 3.268008 0.280464 -1.860179
 H 2.866891 -1.264758 -1.468164
 H 4.038765 1.642688 0.349879
 H 2.460773 1.994451 1.053162
 H 3.227594 3.162606 -1.117911
 H 1.701643 2.597284 -1.105872
 H 2.723476 -1.670167 1.252651
 H 2.794492 -0.167468 2.185818
 H 4.765616 -0.758479 0.328574