19
charge = 0
 C 2.979674 0.852700 1.464555
 C 2.737729 0.202443 0.107998
 N 3.365721 0.900187 -1.010943
 C 3.139809 -1.280421 0.077702
 N 2.870251 -1.913524 -1.207702
 C 4.612617 -1.530521 0.401578
 O 4.916378 -2.890545 0.251280
 H 2.558361 1.860878 1.488015
 H 4.048511 0.936588 1.679380
 H 2.520061 0.277477 2.273558
 H 1.659474 0.223015 -0.092094
 H 4.331242 1.123498 -0.799530
 H 2.896204 1.777226 -1.194732
 H 2.553757 -1.809011 0.837901
 H 3.075920 -1.238711 -1.939770
 H 1.895817 -2.169992 -1.293131
 H 4.837039 -1.250355 1.433633
 H 5.246973 -0.915561 -0.258314
 H 4.393854 -3.157681 -0.522386