17
charge = 0
 C 2.361929 0.109596 0.158888
 C 3.809486 -0.319799 0.002323
 N 4.574790 0.672349 -0.709029
 C 5.206458 0.333258 -1.757886
 N 6.004576 1.231872 -2.390083
 C 6.175251 1.222067 -3.814970
 O 5.870097 2.524891 -1.899220
 H 1.802979 -0.621095 0.748454
 H 1.878256 0.208651 -0.815678
 H 2.303630 1.076551 0.662745
 H 3.856689 -1.300537 -0.496761
 H 4.251416 -0.451547 0.997167
 H 5.207983 -0.665853 -2.204703
 H 6.280574 0.186327 -4.141029
 H 7.086468 1.763367 -4.071630
 H 5.326798 1.686524 -4.331907
 H 5.260029 2.376470 -1.141491