17
charge = 0
 C 3.147343 -1.473919 0.167472
 C 2.518521 -0.423842 1.055305
 N 3.245234 0.840362 1.034707
 C 2.524368 1.905287 1.704598
 N 4.521503 0.706644 1.549231
 C 5.624326 0.930722 0.794534
 O 6.756870 0.835335 1.202093
 H 2.550116 -2.387806 0.187167
 H 4.155663 -1.726890 0.499632
 H 3.205086 -1.121792 -0.864468
 H 2.426293 -0.801783 2.089573
 H 1.504555 -0.203764 0.711282
 H 1.556238 2.042782 1.220330
 H 3.090861 2.832689 1.621639
 H 2.349615 1.694079 2.772860
 H 4.651704 0.451457 2.524601
 H 5.354224 1.210030 -0.239367