17
charge = 0
 C 1.130266 -0.152664 0.498591
 C 2.488843 -0.122115 -0.168299
 N 3.507469 -0.611919 0.721457
 C 4.813232 -0.726112 0.368578
 N 5.375286 -0.348361 -0.713900
 C 5.685072 -1.329537 1.449044
 O 5.008032 -2.260047 2.272481
 H 0.364197 0.227357 -0.178774
 H 1.122743 0.464940 1.399724
 H 0.851595 -1.172030 0.779039
 H 2.730606 0.905654 -0.466510
 H 2.468201 -0.718912 -1.091250
 H 3.232254 -1.099235 1.559386
 H 4.717435 0.099941 -1.348203
 H 6.019189 -0.526439 2.111302
 H 6.567869 -1.756704 0.968046
 H 4.923622 -3.084927 1.787498