17
charge = 0
 C 1.318122 -0.013774 0.234031
 C 2.776619 -0.287007 -0.089951
 N 3.294774 0.684634 -1.021399
 C 4.240925 1.422730 -0.638222
 N 4.699452 2.472141 -1.411750
 O 6.069507 2.699459 -1.254303
 C 6.290086 4.054352 -0.921453
 H 0.914501 -0.792454 0.885795
 H 0.724047 0.014947 -0.681464
 H 1.205824 0.948795 0.738471
 H 2.857675 -1.275173 -0.556350
 H 3.366558 -0.318751 0.840503
 H 4.745838 1.352160 0.333158
 H 4.482399 2.354069 -2.396017
 H 7.370159 4.159540 -0.811686
 H 5.794323 4.318347 0.017374
 H 5.936990 4.721488 -1.714528