12
charge = 0
 C 0.890370 -0.044910 -0.022943
 C 2.217811 -0.091175 0.003141
 N 3.043863 0.820092 -0.632884
 C 4.408472 0.745491 -0.587501
 O 5.023202 -0.112395 0.004734
 C 5.063785 1.809856 -1.328954
 C 5.635671 2.675609 -1.932257
 H 0.314496 -0.794778 0.499988
 H 0.345689 0.726755 -0.555908
 H 2.768191 -0.858656 0.533166
 H 2.632113 1.576582 -1.155746
 H 6.155036 3.438629 -2.464235