16
charge = 0
 C 1.005428 0.167076 -0.073266
 C 2.532974 0.091390 -0.035650
 N 3.170689 1.347269 0.384016
 C 2.976397 -0.969525 0.990200
 O 4.360680 -0.989066 1.151349
 C 3.037805 -0.255235 -1.364795
 C 3.419989 -0.536200 -2.466883
 H 0.622952 0.441985 0.913856
 H 0.571902 -0.794997 -0.354541
 H 0.676416 0.914586 -0.797017
 H 2.632285 1.775441 1.128935
 H 3.217122 2.003663 -0.384288
 H 2.651922 -1.960857 0.665889
 H 2.462559 -0.737737 1.938486
 H 4.630783 -0.060045 1.094510
 H 3.771396 -0.794947 -3.437701