16
charge = 0
 C 0.918171 0.111401 0.162822
 C 2.434671 0.062462 0.109165
 N 3.020058 -1.263402 0.259709
 C 3.015398 0.657466 -1.186383
 O 4.417411 0.625549 -1.129507
 C 2.501076 -0.046572 -2.369289
 C 2.083189 -0.641849 -3.325185
 H 0.558062 -0.261019 1.124805
 H 0.482091 -0.502986 -0.628960
 H 0.548229 1.133162 0.038317
 H 2.848443 0.681969 0.911626
 H 2.559832 -1.925515 -0.355577
 H 2.926409 -1.603123 1.207207
 H 2.717464 1.708894 -1.256305
 H 4.618013 -0.235346 -0.727933
 H 1.726583 -1.155691 -4.186612