18
charge = 0
 C 0.550767 0.216321 0.011210
 C 2.048411 0.162495 0.275738
 N 2.411537 -0.222908 1.633378
 C 2.758377 -0.796975 -0.661025
 O 2.519644 -0.399885 -1.995126
 C 3.083735 -1.144055 -2.961763
 C 3.847919 -2.224172 -2.827052
 H 0.067785 0.930632 0.682853
 H 0.097998 -0.766472 0.180711
 H 0.337050 0.513217 -1.017393
 H 2.474843 1.156499 0.100167
 H 1.932358 -1.078840 1.892490
 H 2.109708 0.485044 2.290807
 H 2.387204 -1.821635 -0.509511
 H 3.832488 -0.790429 -0.447570
 H 2.832519 -0.742505 -3.938028
 H 4.120343 -2.648731 -1.870788
 H 4.223194 -2.707103 -3.718407