16
charge = 0
 C 2.564687 0.292753 -1.554154
 C 2.674639 -0.015808 -0.070470
 N 3.233945 1.072284 0.696214
 C 4.547118 1.125680 1.038294
 O 5.337092 0.239315 0.770692
 C 4.933375 2.357829 1.780485
 C 6.183289 2.543784 2.178365
 H 2.137581 -0.558348 -2.089967
 H 3.550349 0.502023 -1.973647
 H 1.923166 1.159428 -1.734605
 H 3.330321 -0.872880 0.088008
 H 1.693165 -0.265350 0.343466
 H 2.656283 1.869951 0.897647
 H 4.165304 3.098845 1.987139
 H 6.931430 1.789096 1.961060
 H 6.484756 3.432396 2.719482