11
charge = 0
 C 0.737797 0.000562 0.073413
 C 2.064519 -0.031214 -0.079240
 N 2.711390 0.065790 -1.302740
 C 4.063267 0.040246 -1.527779
 O 4.541353 0.130874 -2.627340
 C 2.899768 -0.173867 1.077472
 N 3.550775 -0.288994 2.019337
 H 0.076383 0.107156 -0.777476
 H 0.302610 -0.080503 1.057996
 H 2.136563 0.166701 -2.127042
 H 4.656784 -0.071049 -0.605791