11
charge = 0
 C 1.014348 -0.065475 0.124412
 C 2.340347 -0.052104 0.075778
 N 3.097767 1.106198 -0.050979
 C 4.455161 1.095011 -0.098635
 O 5.159608 0.119146 -0.040061
 C 5.022013 2.446685 -0.235380
 N 5.485254 3.493194 -0.342115
 H 0.488605 -1.004130 0.223986
 H 0.420871 0.840278 0.067750
 H 2.943446 -0.949260 0.131357
 H 2.627482 1.996369 -0.110711