19
charge = 0
 C 3.364179 1.168237 -1.056488
 C 2.735814 0.261415 -0.003401
 N 1.278495 0.256831 -0.025357
 C 3.189527 -1.188110 -0.115913
 O 2.796470 -1.691164 -1.374327
 C 4.683786 -1.398564 0.067702
 N 4.975949 -2.809154 -0.159157
 H 2.953980 2.177978 -0.971211
 H 3.149256 0.792208 -2.058799
 H 4.449111 1.249147 -0.944075
 H 3.044869 0.608877 0.991157
 H 0.965471 -0.202549 -0.873790
 H 0.923331 1.204911 -0.051430
 H 2.662737 -1.740110 0.680698
 H 3.333657 -2.487305 -1.499717
 H 4.993697 -1.028393 1.055236
 H 5.223782 -0.824055 -0.689151
 H 4.710479 -3.370139 0.640985
 H 5.959910 -2.964750 -0.328062