13
charge = 0
 C 0.942139 0.297141 -0.548694
 C 2.355948 0.127658 0.000817
 N 2.399442 0.062622 1.444906
 C 2.813737 1.117668 2.188395
 O 3.167587 2.179627 1.736393
 C 3.000742 -1.058228 -0.568585
 N 3.474448 -2.005966 -1.013945
 H 0.513592 1.215983 -0.147765
 H 0.310127 -0.545787 -0.263904
 H 0.961520 0.360955 -1.637598
 H 2.956370 1.002168 -0.269331
 H 2.120370 -0.785716 1.908880
 H 2.790569 0.900375 3.271021