17
charge = 0
 C 1.187185 -0.686914 0.294127
 C 2.373185 0.210357 -0.017157
 N 3.426310 0.116540 0.962813
 C 4.539589 -0.615749 0.774661
 O 4.803940 -1.232915 -0.240937
 C 5.485105 -0.643719 1.969005
 N 5.175109 0.347578 2.987102
 H 0.413717 -0.577310 -0.470012
 H 0.742677 -0.436750 1.260995
 H 1.496232 -1.733615 0.320092
 H 2.051326 1.253878 -0.090220
 H 2.814789 -0.068593 -0.975374
 H 3.331852 0.528845 1.880577
 H 6.500148 -0.582733 1.561385
 H 5.386946 -1.643056 2.402005
 H 5.635323 1.227321 2.793563
 H 5.476485 0.043634 3.901975