13
charge = 0
 C 0.758116 -0.251404 0.531888
 C 2.194779 0.008854 0.116092
 N 2.305104 0.976903 -0.956551
 C 2.457950 0.609705 -2.242299
 O 2.557501 -0.519193 -2.660787
 C 2.508436 1.765070 -3.160594
 N 2.545731 2.648380 -3.894995
 H 0.729037 -0.980621 1.344288
 H 0.180642 -0.648614 -0.304607
 H 0.272944 0.662605 0.882720
 H 2.661500 -0.908811 -0.243063
 H 2.784320 0.372971 0.961289
 H 2.192250 1.957045 -0.754992