18
charge = 0
 C 1.040301 -0.013954 0.332318
 C 2.539743 0.069126 0.075519
 N 3.285885 -1.070020 0.612120
 C 2.824139 0.132613 -1.419355
 O 2.434097 -1.095851 -2.010113
 C 3.120859 1.322258 0.741417
 O 4.520764 1.335707 0.682853
 H 0.607770 -0.870045 -0.188296
 H 0.528625 0.889327 -0.013412
 H 0.840762 -0.121141 1.402396
 H 3.190184 -1.859314 -0.016393
 H 2.913366 -1.347564 1.512544
 H 3.892934 0.318978 -1.566836
 H 2.260427 0.969606 -1.851440
 H 2.810038 -1.146296 -2.890734
 H 2.766779 1.353866 1.784662
 H 2.750039 2.224481 0.244719
 H 4.767308 0.403804 0.801911