18
charge = 0
 C 1.348074 0.713336 1.083389
 C 2.490282 0.031994 0.336319
 N 3.176637 -0.992708 1.111882
 C 2.045710 -0.615639 -0.968899
 O 1.101328 -1.623158 -0.669334
 C 1.462163 0.349511 -1.981279
 O 1.036315 -0.347127 -3.141253
 H 1.710332 1.106803 2.036667
 H 0.546651 0.000512 1.287366
 H 0.926698 1.553598 0.524436
 H 3.237608 0.790010 0.068146
 H 2.546279 -1.774075 1.256299
 H 3.422676 -0.635512 2.027036
 H 2.945642 -1.076246 -1.410847
 H 0.678784 -1.858808 -1.502881
 H 2.188516 1.134325 -2.227815
 H 0.564250 0.824005 -1.581028
 H 1.815835 -0.646231 -3.617812