13
charge = 0
 C 2.459701 0.386316 -0.993484
 C 2.042946 0.114829 0.233494
 N 2.856687 -0.274292 1.311932
 C 2.256744 -0.518895 2.525674
 O 2.807321 -0.857830 3.542362
 N 4.187666 -0.367701 1.025519
 C 5.040115 -0.708995 1.903670
 H 1.735187 0.676666 -1.741430
 H 3.503436 0.325532 -1.266608
 H 0.995553 0.177013 0.503314
 H 1.165178 -0.363240 2.462139
 H 6.065114 -0.744760 1.545283
 H 4.817560 -0.953934 2.934915