15
charge = 0
 C 2.045042 1.804043 0.859176
 C 2.005732 0.313579 0.565654
 N 2.617829 -0.492306 1.604078
 C 1.839214 -1.127096 2.540068
 O 0.636607 -1.059300 2.578747
 N 3.944329 -0.691964 1.736916
 C 4.764311 -0.158572 0.927631
 H 1.592876 2.357913 0.033755
 H 3.063345 2.172363 0.995603
 H 1.479587 2.024678 1.765902
 H 2.494421 0.076523 -0.384174
 H 0.972595 -0.028796 0.501611
 H 2.461393 -1.702197 3.243395
 H 5.813353 -0.376557 1.090516
 H 4.492746 0.489780 0.096122