16
charge = 0
 C 1.994750 1.547058 -0.145286
 C 2.477839 0.119068 0.041990
 N 3.109583 -0.433709 -1.131872
 C 4.448377 -0.382823 -1.314485
 O 5.257857 0.005323 -0.505687
 O 4.768313 -0.848375 -2.541324
 C 6.159804 -0.864924 -2.823917
 H 1.522445 1.914317 0.769157
 H 1.261185 1.615654 -0.952964
 H 2.831923 2.205256 -0.385629
 H 1.645796 -0.532477 0.324391
 H 3.215022 0.073072 0.844565
 H 2.550226 -0.695572 -1.924999
 H 6.250879 -1.243701 -3.840168
 H 6.690062 -1.518029 -2.129017
 H 6.583019 0.138271 -2.754653