17
charge = 0
 C 0.957546 0.980278 -0.393155
 C 2.398233 0.664481 -0.218038
 N 3.173214 1.427676 0.435771
 N 4.498761 1.134920 0.505486
 C 5.176887 1.676798 1.670207
 C 5.095238 3.190411 1.726058
 O 3.815529 3.662373 2.064176
 H 0.708866 1.098269 -1.452867
 H 0.703569 1.901981 0.130218
 H 0.329512 0.170911 -0.008246
 H 2.787111 -0.249557 -0.686095
 H 4.708787 0.154917 0.334887
 H 6.225856 1.379457 1.583506
 H 4.781259 1.264360 2.610249
 H 5.432722 3.596296 0.760784
 H 5.781311 3.551061 2.497749
 H 3.198590 3.169289 1.503710