15
charge = 0
 C 1.053133 0.482649 -0.795811
 C 2.498095 0.224308 -0.596659
 N 3.245857 -0.123948 -1.563004
 N 4.565733 -0.318489 -1.162365
 C 5.340740 -0.567542 -2.136378
 C 6.793279 -0.811489 -1.904396
 O 7.210221 -2.037720 -2.470847
 H 0.807496 1.509606 -0.507623
 H 0.458090 -0.173105 -0.152477
 H 0.771927 0.322362 -1.835890
 H 2.925433 0.340112 0.404244
 H 4.959682 -0.631748 -3.159667
 H 7.003140 -0.752459 -0.830828
 H 7.380043 -0.037691 -2.408954
 H 6.741640 -2.746834 -2.022144