15
charge = 0
 C 1.560969 0.057568 -1.312636
 C 2.984143 0.370224 -0.939930
 N 3.756330 1.172424 -1.548850
 N 3.394328 -0.331575 0.182304
 C 4.597568 -0.365629 0.879277
 C 5.733242 0.483252 0.409861
 O 4.665458 -1.089930 1.846981
 H 1.264393 0.621085 -2.195602
 H 0.883375 0.310819 -0.492649
 H 1.443181 -1.008984 -1.522998
 H 3.273673 1.585109 -2.340235
 H 2.715531 -0.947763 0.603627
 H 5.447361 1.535615 0.394240
 H 5.999280 0.236777 -0.618680
 H 6.572078 0.315607 1.081911