15
charge = 0
 C 1.210211 0.750836 -0.368735
 C 2.636580 0.546367 -0.798063
 N 3.151246 0.885461 -1.917621
 N 3.415882 -0.064274 0.133477
 C 4.790871 -0.338697 -0.099042
 C 5.409661 -1.011673 1.082083
 O 4.813366 -1.280679 2.090887
 H 0.640103 1.242782 -1.154978
 H 1.163909 1.366724 0.533247
 H 0.735453 -0.207127 -0.140823
 H 2.454618 1.327371 -2.507152
 H 3.046290 -0.345241 1.026008
 H 5.366591 0.573257 -0.318869
 H 4.944956 -0.977889 -0.981728
 H 6.485063 -1.256028 0.969728