15
charge = 0
 C 1.513289 1.089561 0.021147
 C 2.327158 0.107573 0.834579
 N 3.040162 -0.791804 -0.042474
 N 3.804700 -1.720617 0.450168
 C 4.442765 -2.525003 -0.328135
 C 5.278275 -3.538176 0.287182
 O 5.927021 -4.351741 -0.329737
 H 0.975057 1.768442 0.683228
 H 0.775856 0.575323 -0.600602
 H 2.152487 1.693523 -0.628066
 H 1.676111 -0.473240 1.496118
 H 3.044696 0.638380 1.468784
 H 2.938831 -0.691844 -1.046616
 H 4.383030 -2.478243 -1.419360
 H 5.275382 -3.507444 1.396175