17
charge = 0
 C 0.782826 0.061856 -0.066123
 C 2.270002 0.088799 -0.340664
 N 2.948312 -0.855421 0.547070
 N 4.301246 -0.974193 0.245521
 C 4.742952 -1.916714 -0.629225
 C 6.239026 -2.048136 -0.733379
 O 3.974513 -2.603450 -1.274425
 H 0.264432 0.786514 -0.696433
 H 0.574457 0.299809 0.979110
 H 0.361433 -0.924145 -0.281790
 H 2.674879 1.084313 -0.136837
 H 2.469292 -0.141308 -1.395427
 H 2.546750 -1.778148 0.397205
 H 4.933353 -0.588088 0.926365
 H 6.782841 -1.326116 -0.122276
 H 6.524996 -1.919347 -1.777919
 H 6.524692 -3.058655 -0.436463