15
charge = 0
 C 3.026508 -1.579077 -0.253409
 C 2.589148 -0.184238 0.068951
 N 1.397971 0.287080 -0.007898
 N 3.536268 0.699093 0.490847
 O 3.068639 1.957712 0.768702
 C 4.881131 0.496657 0.672286
 C 5.744990 1.419444 1.090965
 H 2.162653 -2.159359 -0.573197
 H 3.467260 -2.070006 0.616933
 H 3.764711 -1.589513 -1.058219
 H 0.726526 -0.398666 -0.324147
 H 2.108874 1.831925 0.561634
 H 5.194394 -0.511836 0.438673
 H 5.432379 2.426937 1.324411
 H 6.786866 1.155657 1.200858