15
charge = 0
 C 0.921240 0.109929 -0.251792
 C 2.398955 -0.017667 -0.088756
 N 3.107695 -0.897384 -0.674047
 O 2.343753 -1.749443 -1.456743
 C 3.113022 0.912190 0.816976
 C 3.685370 0.386190 2.083911
 N 4.546737 0.805117 0.991852
 H 0.424863 -0.809386 0.068494
 H 0.664134 0.253122 -1.304085
 H 0.532684 0.944963 0.330449
 H 3.003351 -2.326929 -1.849877
 H 2.725827 1.928017 0.813307
 H 3.560957 -0.676075 2.270150
 H 3.707584 1.018444 2.965367
 H 4.864618 -0.007468 0.469691