18
charge = 0
 C 3.237575 2.659604 -0.080723
 C 3.586126 1.251996 0.237394
 N 4.396622 0.992871 1.175966
 O 4.584982 -0.360595 1.338849
 C 5.546066 -0.604594 2.368335
 C 5.407757 -2.068519 2.716865
 C 6.940356 -0.236195 1.906462
 H 3.496392 2.897883 -1.116865
 H 3.767477 3.342224 0.583330
 H 2.161059 2.825087 0.024895
 H 3.138828 0.439776 -0.340102
 H 5.269960 0.013312 3.230931
 H 5.638967 -2.692055 1.849687
 H 4.391991 -2.296095 3.044485
 H 6.099365 -2.329896 3.520089
 H 7.230178 -0.845567 1.046253
 H 7.664485 -0.402832 2.707744
 H 6.980513 0.815506 1.619594