16
charge = 0
 C 0.981498 -2.413315 -1.244311
 C 2.289383 -2.111826 -0.610677
 N 3.367362 -2.423225 -1.198399
 O 4.477070 -2.056816 -0.464704
 C 5.650439 -2.494789 -1.133575
 C 6.822113 -1.867393 -0.465202
 C 7.868668 -2.544489 -0.017770
 H 0.380110 -3.060896 -0.599228
 H 1.128740 -2.906335 -2.204894
 H 0.406544 -1.495355 -1.399333
 H 2.319490 -1.619091 0.363707
 H 5.592456 -2.183920 -2.183916
 H 5.719244 -3.588099 -1.104498
 H 6.792320 -0.784051 -0.377417
 H 7.912890 -3.627042 -0.086526
 H 8.721173 -2.044379 0.426663