14
charge = 0
 C 0.191047 0.573304 -2.003576
 C 0.448183 0.438407 -0.549184
 N 1.630397 0.251823 -0.137891
 O 1.636801 0.154488 1.257682
 C 2.880144 -0.048015 1.785690
 C 2.757586 -0.135884 3.277508
 O 3.884500 -0.138732 1.152705
 H -0.506401 -0.199482 -2.339484
 H 1.120298 0.487817 -2.565368
 H -0.273750 1.539684 -2.219307
 H -0.384719 0.501199 0.154539
 H 2.324840 0.784408 3.674178
 H 3.743986 -0.297506 3.704640
 H 2.092297 -0.956433 3.552568