14
charge = 0
 C 0.585940 0.118604 -0.083396
 C 2.010269 -0.102238 0.267167
 N 2.905815 0.661026 -0.200406
 O 4.172187 0.296293 0.235118
 C 5.105664 1.213378 -0.277796
 C 5.249305 1.129193 -1.779192
 O 5.901793 1.904703 -2.418168
 H 0.170189 -0.765873 -0.574977
 H 0.483606 0.976498 -0.747178
 H -0.008499 0.291169 0.818594
 H 2.285732 -0.925320 0.930006
 H 6.065862 0.948761 0.174807
 H 4.863086 2.242672 0.005230
 H 4.719350 0.274524 -2.250590