17
charge = 0
 C 2.192343 0.754263 2.240019
 C 3.031710 0.679032 0.975964
 N 3.734411 -0.568338 0.796271
 O 2.869315 -1.647420 0.659902
 C 4.858555 -0.869731 1.493768
 N 5.109826 -2.076232 1.804849
 C 6.355526 -2.386356 2.448531
 H 1.655727 1.704871 2.279808
 H 2.816183 0.676633 3.133722
 H 1.460785 -0.053961 2.260058
 H 3.795370 1.461761 0.961750
 H 2.406542 0.826273 0.091612
 H 3.395247 -2.364518 1.081771
 H 5.503325 -0.010497 1.704806
 H 6.965605 -1.498164 2.667132
 H 6.949240 -3.058752 1.821178
 H 6.169600 -2.911864 3.389660