18
charge = 0
 C 1.047387 -0.151979 -0.202640
 C 2.547714 -0.114693 -0.062640
 O 3.119859 -0.007787 -1.349035
 C 4.503796 0.020330 -1.319650
 C 5.178412 0.715971 -2.451311
 C 5.226814 1.319750 -1.080883
 N 6.480277 1.420451 -0.395274
 H 0.576319 -0.237470 0.779026
 H 0.738781 -1.005109 -0.809810
 H 0.683340 0.758727 -0.682224
 H 2.912536 -1.028086 0.431119
 H 2.861016 0.737792 0.556800
 H 4.974957 -0.882480 -0.926209
 H 4.539426 1.187236 -3.187111
 H 6.085759 0.276515 -2.850727
 H 4.576834 2.179064 -0.939601
 H 7.172768 0.805008 -0.799424
 H 6.389114 1.184861 0.585194