18
charge = 0
 C 1.746996 0.184722 1.078672
 C 2.614951 -0.174679 -0.110796
 O 2.085448 -1.289819 -0.805443
 C 2.827217 0.953645 -1.111866
 C 4.000374 0.751371 -2.030925
 C 2.349864 2.326678 -0.858593
 N 1.565257 1.416835 -1.693752
 H 1.568762 -0.712325 1.673338
 H 0.781441 0.576038 0.746576
 H 2.227337 0.930526 1.716402
 H 3.596348 -0.501484 0.248826
 H 1.294234 -0.964119 -1.251857
 H 3.927096 -0.217870 -2.530252
 H 4.940721 0.772209 -1.473523
 H 4.045188 1.534605 -2.792409
 H 2.885890 3.136884 -1.344281
 H 1.887744 2.592180 0.085009
 H 1.690643 1.640402 -2.675106