18
charge = 0
 C 2.794546 1.447874 0.475793
 C 2.401101 0.073936 -0.042082
 O 2.885134 -0.139135 -1.346799
 C 2.901391 -1.018685 0.880313
 C 3.052256 -2.417658 0.428065
 N 4.208224 -1.546389 0.547952
 C 5.118002 -1.815153 1.637785
 H 2.455848 2.218878 -0.217954
 H 3.881913 1.523315 0.566517
 H 2.351726 1.644586 1.456451
 H 1.308147 0.009851 -0.100179
 H 3.785078 -0.480184 -1.229501
 H 2.686628 -0.873423 1.938114
 H 2.771939 -2.689990 -0.583491
 H 2.937235 -3.198207 1.176188
 H 5.843480 -2.570997 1.328466
 H 4.605349 -2.177462 2.541807
 H 5.662711 -0.903425 1.892845