16
charge = 0
 C 1.100091 -0.089543 1.666063
 C 2.372131 -0.460184 1.688322
 O 3.199083 -0.302011 0.630483
 C 4.565153 -0.481538 0.884333
 C 5.445396 -0.534695 -0.362234
 N 6.442416 0.269065 0.366911
 C 5.403932 0.739265 1.299476
 H 0.475769 -0.275913 2.528056
 H 0.663966 0.386990 0.797328
 H 2.820113 -0.935514 2.559842
 H 4.722777 -1.338381 1.547379
 H 4.950224 -0.007399 -1.187337
 H 5.794421 -1.510300 -0.707802
 H 6.901326 0.989304 -0.174553
 H 4.896311 1.662208 0.991168
 H 5.721180 0.824776 2.341765