18
charge = 0
 C 3.244404 0.690733 -1.270159
 C 2.494910 -0.006685 -0.152091
 O 2.498294 -1.417171 -0.346302
 C 2.943218 0.300180 1.266479
 N 2.121895 -0.267799 2.301565
 C 4.411170 0.340168 1.587952
 C 3.591273 1.597606 1.625747
 H 2.847990 0.352584 -2.228825
 H 4.312990 0.457372 -1.249822
 H 3.130484 1.775182 -1.219706
 H 1.435645 0.267629 -0.223195
 H 3.409674 -1.715235 -0.259159
 H 1.957635 -1.247275 2.095400
 H 1.214857 0.186066 2.314204
 H 5.133321 0.237574 0.786808
 H 4.703295 -0.096347 2.533699
 H 3.761189 2.333660 0.851011
 H 3.344276 2.001479 2.599195