12
charge = 0
 C 3.062669 0.199322 1.447720
 C 2.364776 -0.104142 0.151099
 O 1.164086 -0.227806 0.081652
 C 3.166573 -0.258865 -1.088675
 C 4.496116 -0.145382 -1.143070
 C 5.231887 -0.299621 -2.348229
 N 5.849774 -0.420438 -3.313067
 H 2.318605 0.277635 2.237401
 H 3.619110 1.137920 1.379743
 H 3.776134 -0.589987 1.699144
 H 2.587034 -0.477250 -1.979354
 H 5.083847 0.072927 -0.257286