12
charge = 0
 C 3.385413 0.123410 -1.024444
 C 2.545036 -0.261140 0.151734
 O 1.347178 -0.142313 0.175853
 C 3.262481 -0.825128 1.360588
 C 2.563688 -1.185879 2.437882
 C 4.682690 -0.959570 1.321395
 N 5.829072 -1.057076 1.261147
 H 2.749188 0.502418 -1.820823
 H 3.960549 -0.737793 -1.376484
 H 4.116988 0.882421 -0.732146
 H 1.486517 -1.065088 2.421856
 H 3.040109 -1.592662 3.320442