14
charge = 0
 C 0.994538 -0.182796 -0.186253
 C 2.497408 -0.163604 -0.197172
 O 3.146663 -0.829021 -0.964603
 C 3.163262 0.741595 0.816473
 C 4.682268 0.677361 0.729844
 C 5.317649 1.550260 1.702476
 N 5.803205 2.245575 2.478733
 H 0.625956 -0.845093 -0.967035
 H 0.599401 0.825606 -0.337405
 H 0.629978 -0.522459 0.787498
 H 2.816855 0.462845 1.817378
 H 2.806441 1.765160 0.660026
 H 5.016889 0.956614 -0.272064
 H 5.028297 -0.346532 0.890304