16
charge = 0
 C 0.914058 0.148101 0.018190
 C 2.433240 0.055618 0.061619
 O 2.910593 -0.099986 1.387539
 C 2.928485 -1.010028 -0.810461
 C 3.309122 -1.925923 -1.491191
 C 3.814246 -3.009270 -2.322995
 N 4.810199 -3.800030 -1.608846
 H 0.581408 0.950895 0.678167
 H 0.466407 -0.791494 0.350359
 H 0.566092 0.351968 -0.996556
 H 2.854700 1.008880 -0.274361
 H 2.764346 -1.015054 1.645928
 H 4.179567 -2.569389 -3.264602
 H 2.982630 -3.669540 -2.591693
 H 5.574781 -3.205243 -1.313667
 H 5.195427 -4.504405 -2.226031