14
charge = 0
 C 1.130577 -0.058413 0.528370
 C 2.568338 -0.080939 0.033678
 O 2.698541 -0.771617 -1.194871
 C 2.820721 -2.116750 -1.145724
 C 2.820005 -2.919118 -0.087686
 C 3.063916 1.280530 -0.189091
 N 3.433602 2.359611 -0.322756
 H 0.775176 -1.077924 0.676241
 H 0.493480 0.437820 -0.203934
 H 1.065516 0.481325 1.474392
 H 3.226448 -0.540264 0.781921
 H 2.934676 -2.502197 -2.152603
 H 2.695205 -2.585976 0.933743
 H 2.953008 -3.979478 -0.249460