18
charge = 0
 C 0.960870 -1.570089 1.639105
 C 2.382564 -1.597499 2.136045
 O 3.142779 -0.695599 1.354451
 C 4.451098 -0.584903 1.648499
 C 5.146912 -1.224294 2.587455
 C 6.605935 -0.984847 2.785660
 N 6.867160 -0.515528 4.141987
 H 0.347111 -2.258014 2.224423
 H 0.911085 -1.870632 0.590949
 H 0.537744 -0.568053 1.730419
 H 2.812902 -2.603641 2.050789
 H 2.439399 -1.301308 3.191305
 H 4.927600 0.132072 0.985810
 H 4.676272 -1.928563 3.264234
 H 6.967606 -0.305671 1.997234
 H 7.153942 -1.926221 2.660051
 H 6.420825 0.381793 4.288815
 H 7.860507 -0.389804 4.293370