16
charge = 0
 C 1.076093 0.208801 0.126582
 C 2.521524 -0.250495 -0.006720
 O 2.674223 -1.503460 0.601737
 C 2.968208 -0.258354 -1.446960
 C 2.962019 1.005509 -2.235621
 N 3.338972 -1.386531 -1.894601
 O 3.731854 -1.349981 -3.220284
 H 0.798436 0.209389 1.181569
 H 0.415507 -0.480961 -0.403060
 H 0.930471 1.216567 -0.268810
 H 3.164640 0.479842 0.512515
 H 3.046951 -2.089154 -0.072753
 H 2.909933 1.875338 -1.580569
 H 2.101566 1.030972 -2.910464
 H 3.857119 1.069331 -2.855779
 H 4.005694 -2.255391 -3.389972