16
charge = 0
 C 1.165644 0.403362 -0.238252
 C 2.669437 0.306645 -0.223108
 O 3.035791 -0.854695 0.492797
 C 4.425841 -1.033160 0.597652
 C 5.050363 -1.454730 -0.692648
 N 6.015146 -0.787331 -1.166751
 O 6.492343 -1.327227 -2.344338
 H 0.850085 1.299192 -0.777489
 H 0.772440 0.455054 0.778843
 H 0.728673 -0.467386 -0.730834
 H 3.112001 1.190815 0.259982
 H 3.065064 0.266759 -1.247317
 H 4.568548 -1.821861 1.342940
 H 4.926185 -0.124304 0.957183
 H 4.664664 -2.337516 -1.206787
 H 7.204476 -0.728617 -2.586755