19
charge = 0
 C 0.986761 -0.220127 0.121831
 C 2.464945 0.142864 0.182787
 O 3.228622 -0.837849 -0.497600
 C 2.731763 1.500463 -0.480226
 N 2.641488 1.365201 -1.929249
 C 2.940646 0.148064 1.631210
 N 4.365581 0.412382 1.705398
 H 0.638966 -0.249006 -0.914044
 H 0.373691 0.498750 0.673039
 H 0.828865 -1.212887 0.547756
 H 3.256696 -0.522413 -1.416388
 H 3.750098 1.794632 -0.221510
 H 2.049860 2.253345 -0.063199
 H 3.202009 2.059620 -2.401641
 H 1.691624 1.460544 -2.262435
 H 2.644347 -0.815799 2.073593
 H 2.402110 0.931362 2.175788
 H 4.850521 -0.298924 1.170494
 H 4.691306 0.355777 2.661074