14
charge = 0
 C 1.185628 -0.473770 0.110228
 C 2.667483 -0.260508 0.027115
 O 3.463934 -1.160566 0.139491
 C 3.129960 1.158731 -0.209499
 N 4.556415 1.209892 -0.266353
 C 5.225764 2.360436 -0.467881
 O 4.701147 3.441362 -0.618770
 H 0.971113 -1.526609 0.281689
 H 0.704450 -0.143830 -0.814705
 H 0.762689 0.126942 0.920252
 H 2.736135 1.801961 0.587887
 H 2.676993 1.533818 -1.136218
 H 5.038573 0.330925 -0.146155
 H 6.321716 2.216738 -0.483882