18
charge = 0
 C 3.247795 -0.351082 -1.289240
 C 2.760684 -0.391132 0.146517
 O 3.243582 -1.539836 0.829460
 C 3.177282 0.821544 0.978099
 N 2.704352 0.758544 2.356485
 C 4.686840 1.049756 1.030776
 O 4.978833 2.146087 1.857918
 H 2.834490 -1.188187 -1.859243
 H 4.336093 -0.416454 -1.336185
 H 2.931955 0.571124 -1.783953
 H 1.659037 -0.409437 0.144153
 H 2.953747 -2.323722 0.357424
 H 2.729661 1.709919 0.518648
 H 2.845311 -0.179915 2.714946
 H 1.716350 0.965028 2.419128
 H 5.078784 1.274746 0.036287
 H 5.180341 0.134483 1.388113
 H 4.349963 2.062924 2.590975