16
charge = 0
 C 1.027551 -0.118928 0.329268
 C 2.517783 -0.058964 0.073007
 O 3.054316 -1.348720 -0.182311
 C 2.894637 0.899007 -1.053885
 N 2.387600 0.489056 -2.342843
 C 1.336872 1.081632 -2.951341
 O 0.668736 1.974035 -2.482271
 H 0.813255 -0.805439 1.150579
 H 0.495769 -0.463613 -0.563160
 H 0.630179 0.865933 0.580506
 H 3.027704 0.295184 0.975631
 H 2.397903 -1.847148 -0.676318
 H 3.984414 0.960737 -1.109619
 H 2.500353 1.896105 -0.848648
 H 2.884897 -0.222778 -2.849795
 H 1.140912 0.655201 -3.953590