17
charge = 0
 C 3.192686 -1.480957 0.342591
 C 2.627626 -0.070961 0.340206
 O 2.911112 0.606857 1.546191
 C 3.065428 0.744859 -0.873252
 N 4.506115 0.812188 -1.026929
 N 5.178267 1.377803 -0.009467
 C 6.336272 1.860731 -0.204508
 H 2.824683 -2.017405 1.218356
 H 4.283483 -1.463762 0.381039
 H 2.891485 -2.031146 -0.553643
 H 1.534091 -0.130342 0.288367
 H 3.818515 0.935068 1.467064
 H 2.618111 1.745353 -0.794964
 H 2.680194 0.272063 -1.780423
 H 4.827584 1.074016 -1.954051
 H 6.871534 2.262273 0.646439
 H 6.813615 1.875720 -1.188806