17
charge = 0
 C 1.556146 2.317612 -1.662293
 C 2.952132 2.318944 -1.098481
 O 3.138401 1.096048 -0.391792
 C 4.330336 0.927667 0.193407
 N 5.257609 1.782847 0.146187
 N 6.410979 1.530684 0.857935
 C 7.566987 2.141641 0.241991
 H 1.378334 3.243903 -2.212794
 H 0.813277 2.244282 -0.865696
 H 1.411356 1.479036 -2.346184
 H 3.116469 3.155459 -0.412029
 H 3.710320 2.395342 -1.884633
 H 4.383279 -0.028326 0.720653
 H 6.559226 0.536529 1.013475
 H 7.770917 1.779655 -0.775801
 H 8.438526 1.944510 0.869218
 H 7.413116 3.220474 0.195535