16
charge = 0
 C 1.033786 0.068263 -0.203923
 C 2.497295 0.066940 0.146012
 O 3.023518 -1.219916 -0.182552
 C 4.317293 -1.411302 0.059028
 N 5.063397 -0.513919 0.554252
 O 6.362622 -0.985704 0.697905
 C 7.155916 0.037052 1.251056
 H 0.597764 1.040514 0.035192
 H 0.496396 -0.696447 0.360022
 H 0.886392 -0.120943 -1.268854
 H 2.665853 0.255375 1.210773
 H 3.053885 0.827815 -0.409776
 H 4.663171 -2.407085 -0.209920
 H 8.158710 -0.381442 1.340890
 H 6.789309 0.331585 2.239458
 H 7.180002 0.915725 0.598835