14
charge = 0
 C 2.821735 -0.979113 -2.636404
 C 2.370650 -1.218781 -1.412615
 O 3.071891 -1.355077 -0.259101
 C 4.446564 -1.120188 -0.260923
 O 5.187265 -2.249327 -0.649352
 N 5.761478 -2.085443 -1.890544
 C 6.421951 -3.103481 -2.241999
 H 2.098986 -0.876140 -3.434226
 H 3.871798 -0.903055 -2.883469
 H 1.312227 -1.328601 -1.203316
 H 4.701128 -0.928767 0.781545
 H 4.711528 -0.276185 -0.903736
 H 6.910539 -3.050351 -3.207122
 H 6.505859 -3.995089 -1.623417