16
charge = 0
 C 1.393237 0.716238 -0.946805
 C 2.787449 0.299365 -0.555371
 O 3.063788 0.826545 0.732049
 C 4.222424 0.369514 1.320823
 O 5.397476 0.978019 0.821290
 N 5.941580 0.237270 -0.201871
 C 6.966014 0.789893 -0.695278
 H 1.148874 0.330554 -1.939057
 H 1.310687 1.804536 -0.971314
 H 0.659361 0.332971 -0.235178
 H 3.521374 0.668736 -1.279940
 H 2.878928 -0.795374 -0.527438
 H 4.331513 -0.717087 1.214122
 H 4.176869 0.666114 2.369120
 H 7.459322 0.261166 -1.501710
 H 7.348804 1.745429 -0.340443