16
charge = 0
 C 0.902400 0.548085 0.247887
 C 2.323457 0.257650 0.662870
 O 2.718586 0.481923 1.789682
 N 3.117213 -0.269132 -0.305778
 C 4.508467 -0.593217 -0.088039
 C 5.402608 0.111648 -1.055091
 C 6.239922 -0.500898 -1.879801
 H 0.701815 1.606768 0.418307
 H 0.230454 -0.019429 0.893347
 H 0.687800 0.305280 -0.793918
 H 2.732359 -0.413842 -1.222828
 H 4.667130 -1.675549 -0.149356
 H 4.723610 -0.282831 0.938154
 H 5.334810 1.197496 -1.055418
 H 6.322101 -1.583661 -1.898957
 H 6.880888 0.052889 -2.555641