14
charge = 0
 C 1.123336 0.102899 0.057788
 C 2.629956 0.143977 0.039939
 O 3.243856 1.123281 -0.332743
 N 3.249014 -0.988766 0.464818
 C 4.687810 -1.077049 0.555629
 C 5.128526 -1.612774 1.834882
 C 5.485609 -2.076878 2.882074
 H 0.765377 0.897736 0.713918
 H 0.712207 -0.850437 0.392517
 H 0.758476 0.318831 -0.947159
 H 2.699634 -1.758893 0.802598
 H 5.068231 -0.062585 0.407273
 H 5.095646 -1.693560 -0.254391
 H 5.808110 -2.477492 3.814056