16
charge = 0
 C 0.595185 -0.615917 2.124278
 C 1.594905 0.510193 1.939264
 O 1.391326 1.164562 0.679073
 N 1.798936 0.351478 -0.344152
 C 1.609624 0.877622 -1.478627
 C 1.447498 1.571662 2.978914
 C 2.353226 1.832319 3.908457
 H 0.693060 -1.339182 1.313168
 H -0.425210 -0.224852 2.125307
 H 0.772712 -1.125179 3.073498
 H 2.615523 0.113865 1.954111
 H 1.920428 0.298086 -2.339268
 H 1.162671 1.862787 -1.604551
 H 0.510547 2.124243 2.955413
 H 3.296109 1.295561 3.946579
 H 2.186060 2.587342 4.667733