13
charge = 0
 C 0.861205 -0.147001 0.166775
 C 2.313922 -0.351123 -0.168215
 O 2.684048 -1.131665 -1.018368
 N 3.191937 0.405873 0.553496
 C 4.610801 0.260936 0.375677
 C 5.288149 -0.144611 1.605214
 N 5.815008 -0.434835 2.584340
 H 0.314393 0.039948 -0.757506
 H 0.682269 0.670204 0.866502
 H 0.474874 -1.073395 0.595788
 H 2.849231 1.012806 1.277137
 H 5.072794 1.185697 0.014983
 H 4.751058 -0.506113 -0.391412