17
charge = 0
 C 1.105128 -0.208529 -0.460915
 C 2.556871 -0.298393 -0.068221
 O 3.056418 -1.532180 -0.560889
 N 4.384297 -1.661156 -0.228437
 C 4.875691 -2.754972 -0.637053
 C 6.308199 -3.063231 -0.368726
 N 6.413079 -4.322466 0.354466
 H 0.680856 0.730832 -0.100505
 H 0.532706 -1.032072 -0.029630
 H 0.992175 -0.242504 -1.546279
 H 2.678121 -0.266544 1.020167
 H 3.138054 0.525067 -0.497439
 H 4.266584 -3.491216 -1.164319
 H 6.760317 -2.196749 0.131509
 H 6.820136 -3.190335 -1.329680
 H 6.064507 -4.214524 1.298946
 H 7.378250 -4.618428 0.419824