17
charge = 0
 C 0.881169 -1.259114 -2.993666
 C 2.246830 -1.595837 -2.454877
 O 2.999889 -0.386665 -2.421000
 N 4.284474 -0.639913 -1.961070
 C 5.297315 -0.350683 -2.878633
 C 6.653256 -0.326917 -2.244166
 N 5.143382 -0.183387 -4.123896
 H 0.264192 -2.159236 -3.027157
 H 0.948645 -0.852030 -4.004327
 H 0.382735 -0.524020 -2.358956
 H 2.761114 -2.325862 -3.089264
 H 2.183289 -2.012055 -1.442754
 H 4.405524 -0.194095 -1.059011
 H 6.842826 -1.247034 -1.686492
 H 6.742722 0.511872 -1.547015
 H 7.400999 -0.214029 -3.025411
 H 4.150051 -0.199196 -4.354315