16
charge = 0
 C 0.390656 -0.042202 -0.161867
 C 1.801569 -0.287839 0.312381
 O 2.040371 -0.893466 1.338194
 N 2.786226 0.213884 -0.478169
 C 4.182344 0.132069 -0.106160
 C 4.830992 -1.165473 -0.553579
 O 4.793328 -1.329774 -1.955259
 H -0.133207 -0.997443 -0.209423
 H 0.331423 0.449979 -1.133897
 H -0.120928 0.573449 0.580084
 H 2.530364 0.758240 -1.281863
 H 4.255364 0.217195 0.981215
 H 4.704270 0.976979 -0.561065
 H 4.352702 -2.007013 -0.039374
 H 5.886213 -1.154360 -0.270173
 H 3.883124 -1.512716 -2.201726