16
charge = 0
 C 0.036802 1.222428 0.499667
 C 1.061009 0.190571 0.106062
 O 1.961469 0.808463 -0.803881
 N 2.924842 -0.087468 -1.186953
 C 3.756307 0.414625 -2.001721
 C 4.860409 -0.438056 -2.527115
 O 4.796507 -0.569778 -3.933877
 H -0.676722 0.786293 1.201607
 H -0.513990 1.578762 -0.372916
 H 0.511700 2.079577 0.980782
 H 0.592828 -0.672578 -0.379197
 H 1.619617 -0.170859 0.975827
 H 3.662780 1.445676 -2.347768
 H 4.836003 -1.407705 -2.017329
 H 5.826012 0.031495 -2.320450
 H 3.966828 -1.003457 -4.151818