15
charge = 0
 C 2.685613 -1.336717 -0.800904
 C 2.032191 -0.118241 -0.212591
 O 0.834955 -0.013561 -0.037813
 N 2.860399 0.906658 0.134119
 N 4.232101 0.863940 -0.048143
 C 4.861068 2.121368 -0.409595
 C 5.023116 1.555846 0.952756
 H 1.906648 -2.064694 -1.014612
 H 3.416259 -1.757878 -0.108357
 H 3.224705 -1.082982 -1.715298
 H 2.420861 1.733428 0.523017
 H 4.212651 2.986289 -0.512579
 H 5.660185 2.053509 -1.138974
 H 4.482833 2.043622 1.758542
 H 5.943904 1.064124 1.245251