16
charge = 0
 C 1.089910 -0.151569 0.009972
 N 2.528982 -0.133975 -0.120283
 C 3.063657 -0.504415 -1.410784
 C 3.084709 0.907635 -0.957565
 C 4.331110 1.559112 -0.491881
 C 4.887046 2.720613 -1.177684
 O 4.201000 2.865112 0.053881
 H 0.762995 -1.159377 0.275773
 H 0.569709 0.148833 -0.913696
 H 0.791326 0.528261 0.810508
 H 2.361987 -0.754104 -2.203866
 H 3.971951 -1.098737 -1.397056
 H 2.377481 1.581133 -1.441322
 H 5.005044 0.907140 0.061581
 H 4.370951 3.123695 -2.046600
 H 5.957832 2.905852 -1.142397