18
charge = 0
 C 1.261378 -0.417688 0.008489
 N 2.644051 -0.546830 -0.390604
 C 2.886495 -0.571679 -1.818898
 C 3.252153 0.614414 -1.011996
 C 4.671898 0.934555 -0.639937
 C 4.798569 1.556174 0.740484
 O 4.147814 2.808400 0.849792
 H 0.793051 -1.404638 0.025371
 H 0.675773 0.229433 -0.664476
 H 1.208386 -0.002684 1.018372
 H 2.026239 -0.486046 -2.479270
 H 3.659547 -1.254413 -2.157626
 H 2.597429 1.476499 -1.149191
 H 5.097888 1.616632 -1.383403
 H 5.260441 0.011681 -0.661641
 H 5.850611 1.747110 0.964352
 H 4.423799 0.851485 1.493911
 H 3.201088 2.655995 0.884873