18
charge = 0
 C 0.692778 -0.028055 -0.365613
 N 2.071999 0.110100 0.045292
 C 3.058621 -0.694757 -0.648003
 C 3.040276 0.777125 -0.822870
 C 2.632723 1.391132 -2.134493
 C 3.999806 1.610048 -0.006204
 O 3.354252 2.729040 0.558252
 H 0.220382 -0.792068 0.256217
 H 0.557726 -0.320855 -1.415709
 H 0.162924 0.913261 -0.201485
 H 2.709990 -1.292024 -1.488575
 H 3.812740 -1.174617 -0.030735
 H 1.889992 0.796845 -2.666169
 H 3.505822 1.485719 -2.785102
 H 2.228453 2.393753 -1.973641
 H 4.805046 1.999127 -0.635354
 H 4.448983 0.982368 0.774125
 H 2.637708 2.374066 1.095458