15
charge = 0
 C 1.594019 -0.317236 0.216942
 N 2.831282 -0.127491 -0.508828
 C 2.793703 -0.363262 -1.931519
 C 2.890691 1.019328 -1.391342
 C 4.171804 1.794485 -1.468130
 N 5.202748 1.223078 -0.809169
 O 4.246823 2.827279 -2.101437
 H 1.501682 -1.366635 0.504510
 H 0.707340 -0.038537 -0.371647
 H 1.610339 0.288208 1.125364
 H 1.843232 -0.646811 -2.377130
 H 3.670829 -0.833579 -2.362704
 H 2.006904 1.643122 -1.493773
 H 5.015021 0.438419 -0.206600
 H 6.086783 1.698812 -0.783846