16
charge = 0
 C 1.353142 0.178126 0.845358
 N 2.302245 -0.089045 -0.195247
 C 2.297031 -1.442010 -0.716608
 C 2.989625 -1.319206 -2.045131
 O 4.185897 -0.554526 -2.010564
 C 2.985942 0.091272 -2.410625
 C 2.291071 0.840419 -1.308049
 H 1.502846 -0.518114 1.674397
 H 0.301926 0.088964 0.511862
 H 1.498386 1.190090 1.231754
 H 1.278527 -1.834830 -0.901537
 H 2.797086 -2.125099 -0.021628
 H 2.959456 -2.130219 -2.765412
 H 2.952719 0.450266 -3.434088
 H 1.270894 1.089007 -1.659185
 H 2.786896 1.777496 -1.032899