18
charge = 0
 C 1.030560 -0.137400 0.008546
 N 2.463678 -0.111686 0.088765
 C 3.110103 0.953092 0.855569
 C 4.181164 -0.056913 1.290838
 C 3.156408 -1.128464 0.884553
 C 3.633219 -2.357621 0.153653
 O 2.581457 -3.218772 -0.234672
 H 0.675408 0.733262 -0.548929
 H 0.548071 -0.125927 1.003702
 H 0.707453 -1.034518 -0.522383
 H 2.502100 1.291924 1.710572
 H 3.419222 1.825677 0.273746
 H 4.506600 -0.036673 2.329189
 H 5.049773 -0.052628 0.630455
 H 2.553584 -1.434818 1.762584
 H 4.370571 -2.885089 0.777939
 H 4.129842 -2.051988 -0.769948
 H 2.159288 -3.555358 0.560121