16
charge = 0
 C 1.026527 -0.106657 0.014239
 N 2.461137 -0.108060 0.045897
 C 3.154962 0.981124 0.728122
 C 4.220952 -0.029231 1.209613
 C 3.149761 -1.092452 0.876477
 C 5.398539 -0.097753 0.292883
 O 6.544166 -0.074841 0.652893
 H 0.668851 0.736609 -0.581523
 H 0.577564 -0.033793 1.021132
 H 0.664308 -1.023978 -0.456162
 H 2.593415 1.390963 1.582088
 H 3.479318 1.806162 0.086219
 H 4.554960 0.043835 2.242519
 H 2.586481 -1.373670 1.779905
 H 3.469720 -2.002115 0.358712
 H 5.138539 -0.174342 -0.786025