16
charge = 0
 C 1.335318 0.522709 -0.447888
 N 2.582154 0.276975 0.222905
 C 2.723584 0.674085 1.625429
 C 3.580936 -0.577331 1.856082
 C 2.947382 -1.100512 0.544476
 C 3.892195 -1.764818 -0.414906
 O 3.959753 -2.950086 -0.589900
 H 1.182170 1.598962 -0.558063
 H 0.468829 0.104274 0.093089
 H 1.357083 0.085452 -1.449020
 H 1.772798 0.624713 2.178729
 H 3.180029 1.653773 1.788680
 H 4.648189 -0.379611 1.748926
 H 3.401956 -1.168080 2.751155
 H 2.092021 -1.764572 0.739863
 H 4.569713 -1.055324 -0.940355