14
charge = 0
 C 1.058111 0.112818 -0.138722
 N 2.474873 0.072722 0.103284
 C 3.268776 -1.068141 0.229869
 C 4.546650 -0.759361 0.450979
 C 4.663390 0.730693 0.483016
 C 3.237734 1.207465 0.242915
 O 2.815302 2.338865 0.179841
 H 0.677544 -0.905276 -0.211487
 H 0.839439 0.643322 -1.068308
 H 0.541674 0.630177 0.673066
 H 2.808257 -2.042391 0.143222
 H 5.354142 -1.461664 0.583460
 H 5.317514 1.141187 -0.292338
 H 5.021405 1.127174 1.438102