16
charge = 0
 C 1.153710 -0.014244 0.103351
 N 2.533748 0.032228 -0.279492
 C 3.346529 1.210315 -0.100837
 C 4.647196 0.855770 -0.826807
 C 4.692105 -0.666769 -0.770467
 C 3.241750 -1.082890 -0.610868
 O 2.786628 -2.199815 -0.728333
 H 0.563692 0.706886 -0.470277
 H 1.027602 0.207265 1.169562
 H 0.785302 -1.020507 -0.094952
 H 3.514447 1.411673 0.967290
 H 2.854904 2.090660 -0.525638
 H 5.514349 1.336684 -0.374251
 H 4.586082 1.188968 -1.865145
 H 5.235786 -1.035825 0.105206
 H 5.129870 -1.141107 -1.648061