15
charge = 0
 C 0.963040 -0.045235 0.013968
 N 2.408899 -0.040668 0.030252
 C 2.947876 1.102344 0.772576
 C 4.310310 0.623680 1.232097
 C 4.111803 -0.874086 1.360376
 O 4.863839 -1.689318 1.836326
 N 2.897476 -1.147252 0.789964
 H 0.626176 0.848208 -0.514900
 H 0.531301 -0.052263 1.026512
 H 0.596972 -0.915792 -0.534081
 H 2.315159 1.322462 1.647910
 H 2.968188 1.980333 0.126733
 H 4.655863 1.063488 2.165842
 H 5.082102 0.779364 0.472415
 H 2.775007 -2.052365 0.359320