13
charge = 0
 C 1.064983 -0.039414 0.055186
 N 2.501891 -0.021836 0.060036
 C 3.333189 1.084402 0.063292
 C 4.603829 0.644412 0.067432
 N 4.550754 -0.737591 0.066696
 C 3.246292 -1.183123 0.062098
 O 2.832709 -2.326848 0.060252
 H 0.697787 0.985815 0.054238
 H 0.683953 -0.557431 0.937415
 H 0.689927 -0.556926 -0.829893
 H 2.948266 2.089697 0.062382
 H 5.528989 1.193225 0.070789
 H 5.327131 -1.372681 0.069085