13
charge = 0
 C 0.937691 -0.068067 -0.057814
 N 2.372558 -0.036074 -0.054380
 C 3.210094 1.064958 -0.050214
 C 4.461833 0.606996 -0.048176
 O 4.443049 -0.768659 -0.050952
 C 3.134657 -1.175267 -0.054841
 N 2.688653 -2.360168 -0.058238
 H 0.559482 0.953435 -0.056867
 H 0.564819 -0.594500 0.823848
 H 0.569003 -0.591317 -0.943120
 H 2.836904 2.074904 -0.049085
 H 5.422978 1.087964 -0.044956
 H 3.443969 -3.035616 -0.057804