15
charge = 0
 C 1.108811 -0.042916 0.203451
 N 2.494396 0.057948 -0.155170
 C 3.213575 1.285875 -0.327565
 C 4.612303 0.772413 -0.697362
 O 4.526138 -0.649108 -0.688323
 C 3.263100 -1.040758 -0.365221
 N 2.857475 -2.235997 -0.272117
 H 0.698066 0.960068 0.320408
 H 0.984215 -0.589674 1.142325
 H 0.540658 -0.572004 -0.566741
 H 3.227917 1.885641 0.590748
 H 2.782386 1.905905 -1.123039
 H 5.371711 1.079566 0.024496
 H 4.923601 1.095859 -1.692677
 H 3.611638 -2.882709 -0.474103