13
charge = 0
 C 0.946111 0.054467 -0.017488
 N 2.382926 0.100844 -0.011920
 C 3.170309 1.205823 -0.009571
 C 4.469115 0.745031 -0.004190
 O 5.640505 1.427256 -0.000076
 C 4.357112 -0.651879 -0.003700
 N 3.082457 -1.022751 -0.008438
 H 0.560005 1.072758 -0.019709
 H 0.581209 -0.466176 0.869472
 H 0.588135 -0.467425 -0.906533
 H 2.760202 2.203462 -0.011841
 H 5.462168 2.370373 -0.001288
 H 5.146637 -1.387394 -0.000128