15
charge = 0
 C 0.964250 -0.163747 -0.106265
 N 2.395343 -0.060131 -0.100363
 C 3.006629 1.181920 0.288469
 C 4.471905 1.089135 -0.083056
 O 5.058955 -0.055585 0.486393
 N 4.440690 -1.256849 0.104657
 C 3.185276 -1.165954 -0.130506
 H 0.529359 0.621599 -0.732167
 H 0.534935 -0.073997 0.900716
 H 0.667077 -1.129176 -0.518199
 H 2.899811 1.367914 1.365849
 H 2.524506 2.009589 -0.245487
 H 5.031886 1.941379 0.304187
 H 4.577199 1.060344 -1.175882
 H 2.698698 -2.096840 -0.405845