13
charge = 0
 C 1.082092 0.013820 -0.057299
 N 2.498135 0.006543 0.193477
 C 3.329278 -1.089429 0.346634
 N 4.557109 -0.842281 0.562696
 C 4.663662 0.606307 0.573652
 C 3.267352 1.147745 0.323443
 O 2.862883 2.280327 0.245641
 H 0.722314 -1.013124 -0.115367
 H 0.861843 0.523876 -0.997151
 H 0.553490 0.533436 0.744304
 H 2.910228 -2.088994 0.277895
 H 5.355156 0.956612 -0.198104
 H 5.048770 0.966062 1.532169