15
charge = 0
 C 1.212054 -0.061824 0.192860
 N 2.501795 -0.111901 -0.427545
 O 3.276477 1.034329 -0.115631
 C 4.527647 0.740538 -0.714040
 C 4.729916 -0.739396 -0.436113
 C 3.303189 -1.231787 -0.341845
 N 2.825807 -2.401685 -0.221696
 H 0.620310 0.740926 -0.247107
 H 1.293010 0.091608 1.275599
 H 0.735679 -1.022701 0.003653
 H 5.264218 1.396920 -0.252376
 H 4.480067 0.935608 -1.792407
 H 5.221596 -0.911679 0.525139
 H 5.289983 -1.261363 -1.212060
 H 3.565041 -3.096003 -0.259142