12
charge = 0
 C 1.002279 -0.033025 0.060043
 N 2.424547 -0.178625 0.056990
 O 3.184558 0.969984 0.050715
 C 4.460850 0.537868 0.047762
 C 4.559953 -0.795767 0.051468
 C 3.195551 -1.315680 0.057455
 O 2.743930 -2.444419 0.062061
 H 0.770086 1.030317 0.062243
 H 0.572431 -0.499610 0.949024
 H 0.568059 -0.496956 -0.828259
 H 5.193387 1.330605 0.042966
 H 5.455258 -1.393091 0.050242