18
charge = 0
 C 1.949845 -0.350223 0.454210
 N 2.837862 0.172850 -0.561321
 C 3.643702 1.268134 -0.134306
 C 4.082543 2.311287 -1.115078
 C 3.172335 2.701319 0.005091
 C 1.754972 3.102095 -0.282371
 O 3.804865 3.477050 0.985787
 H 1.376277 -1.184692 0.045644
 H 1.243643 0.388114 0.864485
 H 2.542966 -0.738699 1.287036
 H 2.338475 0.393179 -1.411209
 H 4.393179 0.984019 0.601404
 H 3.657574 2.272063 -2.112737
 H 5.106651 2.658355 -1.068068
 H 1.288978 2.435244 -1.010736
 H 1.719937 4.119463 -0.680115
 H 1.148859 3.075269 0.628580
 H 3.402047 3.270404 1.834503