16
charge = 0
 C 0.835045 -0.600737 0.594929
 N 1.976679 -0.576669 -0.300889
 C 2.933547 -1.592842 -0.017807
 C 2.723376 -2.928233 -0.610464
 C 3.818389 -2.041643 -1.167000
 C 5.214032 -2.385497 -0.856407
 O 5.569794 -2.935911 0.156171
 H 0.158174 0.217389 0.342142
 H 1.100294 -0.515278 1.659916
 H 0.290192 -1.538089 0.462322
 H 2.420151 0.332856 -0.274840
 H 3.443580 -1.583017 0.948059
 H 1.856375 -3.061018 -1.244772
 H 3.060240 -3.790960 -0.049691
 H 3.629535 -1.565374 -2.120810
 H 5.959189 -2.094776 -1.626757