18
charge = 0
 C 3.137464 -0.326138 -0.991284
 N 2.324726 0.020431 0.158321
 C 2.785525 -0.535459 1.394854
 C 1.951895 -0.290512 2.662536
 C 2.422174 -1.659431 3.188345
 C 2.721703 -2.048311 1.731207
 O 3.780839 -2.908886 1.422890
 H 2.708230 0.121430 -1.889994
 H 3.250075 -1.406911 -1.159596
 H 4.139485 0.093728 -0.863052
 H 1.360859 -0.248099 0.001084
 H 3.816228 -0.192325 1.564984
 H 0.883684 -0.298401 2.429147
 H 2.173954 0.598399 3.251580
 H 1.723846 -2.274890 3.755160
 H 3.351319 -1.562672 3.758106
 H 1.832688 -2.486064 1.264852
 H 4.580399 -2.559007 1.825548