18
charge = 0
 C 1.294574 0.530066 -0.086873
 N 2.060073 0.214980 -1.279382
 C 2.905776 -0.945061 -1.184589
 C 3.824902 -1.083346 0.000007
 C 3.374317 -1.477220 -2.517122
 C 2.261482 -2.166867 -1.784342
 O 0.964697 -2.064445 -2.256496
 H 0.615763 1.357119 -0.304277
 H 1.902226 0.808432 0.784921
 H 0.687825 -0.335527 0.188946
 H 2.584534 1.019124 -1.598891
 H 3.276100 -1.072536 0.945050
 H 4.562127 -0.273544 0.023939
 H 4.371842 -2.027212 -0.050029
 H 4.352518 -1.941405 -2.561711
 H 3.084855 -0.919470 -3.400330
 H 2.455725 -3.132180 -1.330518
 H 0.796672 -1.108197 -2.287392