16
charge = 0
 C 1.017429 0.197044 0.006924
 N 2.406409 -0.210597 0.120407
 C 2.853991 -1.079641 -0.919653
 C 4.362086 -1.421839 -1.046187
 C 4.009540 -2.871767 -1.448260
 C 2.624979 -2.601691 -0.868088
 O 1.803481 -3.289250 -0.338444
 H 0.761751 0.842338 0.849389
 H 0.304488 -0.637600 -0.020494
 H 0.889682 0.784197 -0.906920
 H 2.567533 -0.642147 1.022594
 H 2.489700 -0.704043 -1.883858
 H 4.849252 -1.382803 -0.070263
 H 4.933253 -0.826926 -1.756576
 H 4.569212 -3.694374 -1.003482
 H 3.966213 -3.011210 -2.531490