13
charge = 0
 C 0.939002 0.061910 0.149110
 N 2.376812 0.060902 0.057089
 C 2.868995 -0.006919 -1.100366
 O 4.267316 -0.009007 -1.204628
 N 4.556266 -0.088741 -2.541396
 C 3.436028 -0.135220 -3.268752
 C 2.360302 -0.089370 -2.448388
 H 0.644934 0.122053 1.197842
 H 0.489524 -0.851183 -0.266558
 H 0.484396 0.918063 -0.369408
 H 5.529224 -0.098469 -2.773579
 H 3.495858 -0.199427 -4.345659
 H 1.322851 -0.109382 -2.730097