18
charge = 0
 C 0.984878 0.126449 0.083921
 N 2.425056 0.030768 -0.030923
 C 2.887490 -0.721537 -1.169839
 C 4.406565 -0.769056 -1.276266
 C 4.642750 -1.945634 -2.209212
 O 3.499688 -2.792598 -2.103106
 C 2.560070 -2.217427 -1.221618
 H 0.728113 0.727880 0.958253
 H 0.461597 -0.838524 0.169486
 H 0.586709 0.641012 -0.795198
 H 2.821941 -0.355074 0.817941
 H 2.477185 -0.245770 -2.069611
 H 4.826131 -0.967471 -0.283980
 H 4.835606 0.164390 -1.640774
 H 5.539788 -2.516869 -1.951368
 H 4.737427 -1.620703 -3.251769
 H 2.653643 -2.647474 -0.210080
 H 1.558346 -2.441463 -1.596149