16
charge = 0
 C 2.716010 -1.180758 -0.012689
 N 2.335535 0.214255 0.039997
 C 2.820906 0.989146 -1.063465
 C 2.566913 2.508597 -0.980998
 C 3.998879 2.722489 -1.448850
 O 4.588716 3.659822 -1.894717
 C 4.353487 1.257561 -1.242886
 H 2.339020 -1.698398 0.871058
 H 3.803039 -1.350459 -0.074179
 H 2.258461 -1.648366 -0.888971
 H 2.636097 0.628870 0.914193
 H 2.404422 0.572685 -1.985393
 H 2.439537 2.845830 0.053586
 H 1.773593 2.945433 -1.588211
 H 4.908633 1.116017 -0.309050
 H 4.896753 0.770676 -2.054245