15
charge = 0
 C 2.549641 0.764359 -0.771995
 N 2.156666 -0.045642 0.368968
 C 2.931114 -1.238030 0.525164
 C 2.601243 -2.145057 1.735446
 N 2.457656 -3.246193 0.793083
 C 2.627760 -2.497906 -0.336068
 O 2.532546 -2.750811 -1.505677
 H 1.905373 1.643801 -0.824851
 H 2.505553 0.237009 -1.733338
 H 3.574729 1.115251 -0.624272
 H 1.172145 -0.276353 0.305644
 H 3.993613 -0.983310 0.476300
 H 1.672988 -1.861930 2.238945
 H 3.397790 -2.273561 2.471422
 H 2.180492 -4.206816 0.918738