18
charge = 0
 C 2.201823 -1.362381 0.164875
 N 2.359326 0.053699 -0.089465
 C 2.876028 0.799175 1.016484
 C 2.941812 2.315830 0.855822
 O 2.371779 2.521228 2.153238
 C 2.023478 1.128643 2.269571
 C 2.391440 0.550650 3.606493
 H 1.804173 -1.853204 -0.725396
 H 1.539754 -1.603275 1.011596
 H 3.180335 -1.803245 0.374707
 H 1.485485 0.457726 -0.404247
 H 3.840018 0.369331 1.307755
 H 2.286468 2.688214 0.056671
 H 3.926712 2.778699 0.755461
 H 0.949642 0.987730 2.067695
 H 3.464204 0.651882 3.787223
 H 2.126621 -0.509304 3.650795
 H 1.859711 1.068201 4.408722