14
charge = 0
 C 3.130955 0.551418 -1.036535
 N 2.242556 0.135717 0.035375
 C 2.804095 -0.833597 0.920817
 C 1.955805 -1.324204 2.096435
 O 2.143741 -2.703657 1.679849
 C 2.823886 -2.329706 0.555963
 O 3.197967 -3.024643 -0.328099
 H 2.619351 1.288088 -1.657811
 H 3.475793 -0.269555 -1.678127
 H 4.009778 1.037340 -0.604306
 H 1.365246 -0.197772 -0.345012
 H 3.800951 -0.504761 1.228267
 H 0.903218 -1.042959 2.041011
 H 2.348868 -1.160000 3.099074