15
charge = 0
 C 2.100896 1.474183 0.163565
 N 2.527574 0.110125 -0.069988
 C 3.056178 -0.115467 -1.406199
 C 3.409661 -1.576021 -1.654997
 O 4.842769 -1.655162 -1.611494
 N 5.362569 -0.387810 -1.640242
 C 4.432927 0.471050 -1.560886
 H 1.616029 1.540176 1.138590
 H 1.402346 1.858803 -0.598226
 H 2.966932 2.139643 0.187952
 H 1.747765 -0.518324 0.078925
 H 2.378039 0.271948 -2.185568
 H 3.081303 -1.914163 -2.641722
 H 3.010661 -2.239791 -0.885410
 H 4.688352 1.522100 -1.567988