15
charge = 0
 C 1.110226 0.459688 0.265100
 N 2.252232 -0.158985 -0.354517
 C 2.941364 0.370569 -1.384501
 N 3.954866 -0.142402 -1.960406
 C 4.344065 0.790005 -3.003258
 C 3.332815 1.949479 -2.897196
 O 2.472256 1.567307 -1.815322
 H 0.760235 -0.191075 1.065736
 H 0.288456 0.602368 -0.442031
 H 1.357504 1.432127 0.699737
 H 2.588811 -1.044414 -0.026585
 H 4.308925 0.308685 -3.986262
 H 5.372982 1.133028 -2.852215
 H 2.719174 2.076234 -3.791370
 H 3.792379 2.907086 -2.644200