18
charge = 0
 C 1.016701 -0.158060 0.335059
 N 2.257102 -0.302028 -0.392803
 C 2.693578 -1.675851 -0.504410
 C 3.981865 -1.763033 -1.280389
 C 3.941009 -1.305246 -2.709027
 C 5.008587 -2.702470 -0.838229
 O 5.122155 -1.321706 -0.534057
 H 0.771614 0.900360 0.441646
 H 1.031358 -0.611557 1.340521
 H 0.204920 -0.629525 -0.226472
 H 2.988934 0.232465 0.060458
 H 1.917392 -2.243216 -1.032304
 H 2.836232 -2.161464 0.476569
 H 3.546403 -0.289519 -2.766111
 H 3.288213 -1.953898 -3.299523
 H 4.940890 -1.325804 -3.144222
 H 5.729731 -3.078166 -1.561008
 H 4.819604 -3.353190 0.013101