18
charge = 0
 C 1.171210 -0.097831 -0.144571
 N 2.578039 -0.411312 -0.262248
 C 3.384512 0.167231 0.789022
 C 4.836978 -0.214797 0.635977
 C 5.736792 0.096509 1.837161
 O 5.929378 -1.294932 2.116782
 C 5.180504 -1.674191 0.950712
 H 0.626373 -0.515037 -0.993536
 H 0.955668 0.982500 -0.092058
 H 0.769888 -0.557413 0.762933
 H 2.924793 -0.104455 -1.163046
 H 3.015365 -0.215735 1.748839
 H 3.297254 1.269243 0.841972
 H 5.225975 0.143514 -0.320871
 H 5.250477 0.619688 2.668853
 H 6.681488 0.599228 1.602936
 H 4.325050 -2.311540 1.194175
 H 5.811646 -2.182760 0.214458