18
charge = 0
 C 0.882236 0.081073 -0.223174
 N 2.318572 0.192308 -0.122626
 C 2.862306 0.973008 -1.209417
 C 2.760373 0.556658 1.193976
 C 4.257651 0.494740 1.514394
 O 4.233706 1.807592 2.088298
 C 2.879940 2.026535 1.671779
 H 0.614469 -0.344647 -1.193425
 H 0.358991 1.049353 -0.129042
 H 0.504148 -0.586381 0.554475
 H 2.638384 0.474495 -2.155705
 H 3.946732 1.052391 -1.126361
 H 2.449806 1.994574 -1.265887
 H 2.181478 -0.037653 1.903525
 H 4.913125 0.440470 0.638642
 H 4.568664 -0.266199 2.236178
 H 2.816193 2.780012 0.878543
 H 2.239124 2.328860 2.505427