18
charge = 0
 C 1.002930 -0.156725 0.106989
 N 2.446993 -0.185025 0.015521
 C 2.962436 0.183200 -1.290507
 C 4.453294 0.340603 -1.197756
 O 4.833637 1.267232 -0.230081
 C 5.339976 -0.854566 -1.415528
 C 5.304584 0.283119 -2.408254
 H 0.688880 -0.483324 1.100131
 H 0.496929 -0.788724 -0.640143
 H 0.649219 0.868029 -0.032513
 H 2.792615 -1.105683 0.260157
 H 2.519554 1.147404 -1.564677
 H 2.702505 -0.535389 -2.085126
 H 4.239232 1.103748 0.515715
 H 4.893656 -1.799605 -1.704494
 H 6.215217 -0.928663 -0.783061
 H 4.832608 0.117076 -3.369381
 H 6.156436 0.951004 -2.423991