16
charge = 0
 C 3.419913 -1.018893 -0.745765
 N 3.234703 -0.484732 0.591141
 C 3.181183 0.955704 0.631111
 C 2.581041 1.456427 1.915995
 C 1.750795 2.483896 2.015650
 C 4.546949 1.630447 0.508600
 O 5.586782 1.043562 0.620669
 H 3.504596 -2.105278 -0.687950
 H 4.307362 -0.635248 -1.269460
 H 2.538782 -0.791641 -1.352228
 H 4.003906 -0.790020 1.177883
 H 2.567409 1.319005 -0.202411
 H 2.906271 0.927440 2.808923
 H 1.406218 3.025706 1.140209
 H 1.373993 2.814395 2.976376
 H 4.518609 2.730520 0.354436