20
charge = 0
 C 1.761916 1.268686 -1.328344
 N 3.121113 0.775234 -1.422879
 C 3.270526 -0.655689 -1.676277
 C 2.582590 -1.055688 -2.968749
 C 4.782519 -0.915621 -1.698619
 C 5.168778 -2.354515 -1.943489
 O 5.400878 -0.113947 -2.680172
 H 1.780434 2.296939 -0.962836
 H 1.123111 0.676123 -0.653825
 H 1.288933 1.283345 -2.311401
 H 3.607328 0.991046 -0.559785
 H 2.840253 -1.255010 -0.853187
 H 3.001383 -0.508347 -3.815570
 H 1.509915 -0.860821 -2.925131
 H 2.707721 -2.123388 -3.153133
 H 5.159566 -0.627556 -0.699656
 H 4.886581 -2.667660 -2.949999
 H 4.688556 -3.015921 -1.218046
 H 6.249938 -2.468677 -1.849594
 H 4.927960 0.729978 -2.651007