18
charge = 0
 C 0.896232 0.108531 -0.118665
 N 2.341637 0.066475 -0.101377
 C 2.879604 -0.546481 1.096826
 C 4.368379 -0.612131 1.042629
 C 5.184223 -0.135844 1.976401
 C 6.671915 -0.221364 1.912297
 O 7.288304 1.051708 1.990116
 H 0.552698 0.628150 -1.015089
 H 0.449706 0.603454 0.760013
 H 0.502371 -0.911074 -0.157040
 H 2.718119 1.001719 -0.194638
 H 2.477245 -1.567229 1.147352
 H 2.562301 -0.041605 2.026355
 H 4.785780 -1.092156 0.158384
 H 4.772659 0.363883 2.852461
 H 6.976496 -0.759125 1.004090
 H 7.059501 -0.779978 2.769463
 H 6.922831 1.594637 1.286312