18
charge = 0
 C 1.006239 0.036530 -0.010735
 N 2.452963 -0.006454 -0.086572
 C 3.092137 1.165644 0.504143
 C 4.587897 1.028918 0.503380
 C 5.362039 1.883920 -0.154603
 C 5.151140 -0.108852 1.310420
 O 4.701796 -1.374159 0.882951
 H 0.584286 -0.827300 -0.526675
 H 0.572169 0.949523 -0.446570
 H 0.694644 -0.014152 1.035500
 H 2.746473 -0.081765 -1.054049
 H 2.739799 1.232867 1.541748
 H 2.795040 2.101558 0.005135
 H 4.944083 2.716949 -0.711152
 H 6.442330 1.786332 -0.150152
 H 4.887796 0.055590 2.369630
 H 6.241994 -0.105223 1.244301
 H 3.767476 -1.259629 0.633211