16
charge = 0
 C 0.939831 -0.075697 0.093758
 N 2.370671 -0.214152 -0.059805
 C 2.954952 -1.059455 0.964699
 C 4.406996 -1.091400 0.894606
 C 5.609160 -1.116805 0.855229
 C 7.065016 -1.118436 0.795570
 O 7.679455 -0.370721 1.824985
 H 0.555359 0.611492 -0.661575
 H 0.626490 0.288795 1.086716
 H 0.458990 -1.044857 -0.067662
 H 2.819409 0.692570 -0.039949
 H 2.568754 -2.077477 0.831170
 H 2.662924 -0.757138 1.987667
 H 7.379864 -0.762649 -0.195461
 H 7.437768 -2.140619 0.900687
 H 7.259330 0.492978 1.853357