17
charge = 0
 C 1.072476 -0.167842 0.185172
 N 2.486688 -0.087450 -0.084145
 C 3.138403 -1.109591 -0.860249
 C 3.163579 0.983731 0.431464
 C 4.631769 1.136753 0.195056
 N 2.483546 1.835563 1.116299
 O 3.316349 2.872091 1.573737
 H 0.667620 -1.063259 -0.284272
 H 0.546321 0.710963 -0.201934
 H 0.876364 -0.205595 1.261888
 H 2.392721 -1.848394 -1.149436
 H 3.917594 -1.637940 -0.298654
 H 3.585928 -0.722184 -1.782899
 H 5.053745 0.334468 -0.403768
 H 5.151328 1.178947 1.154289
 H 4.821721 2.091043 -0.299959
 H 2.696617 3.422598 2.056610