17
charge = 0
 C 1.310349 -0.524108 -0.218091
 N 2.379696 0.401093 -0.525324
 C 2.322926 0.823938 -1.910307
 C 2.398020 1.536400 0.372617
 C 3.751361 2.226500 0.479523
 N 4.798033 1.438749 0.159355
 O 3.850502 3.372481 0.864813
 H 1.370251 -1.388191 -0.883603
 H 0.308987 -0.075420 -0.335353
 H 1.407404 -0.879237 0.809814
 H 2.406305 -0.044863 -2.566790
 H 3.151837 1.499188 -2.131297
 H 1.382154 1.348249 -2.150134
 H 2.156868 1.194000 1.383974
 H 1.659650 2.310938 0.115077
 H 4.617047 0.501782 -0.161082
 H 5.731098 1.802990 0.231408