17
charge = 0
 C 1.431501 -0.581874 0.106654
 N 2.811287 -0.438817 0.531911
 C 3.096863 0.770084 1.293086
 C 2.231104 0.877137 2.541598
 C 4.560196 0.807100 1.730628
 N 5.165822 -0.398603 1.775263
 O 5.103144 1.849542 2.032927
 H 1.358935 -1.420422 -0.587988
 H 1.026795 0.312872 -0.392028
 H 0.790730 -0.810093 0.959591
 H 3.402639 -0.439572 -0.291061
 H 2.950195 1.684636 0.697318
 H 2.310581 -0.031924 3.143460
 H 1.181722 1.035296 2.288230
 H 2.565935 1.726017 3.138459
 H 4.623944 -1.223267 1.575368
 H 6.102887 -0.460222 2.132472