14
charge = 0
 C 1.126971 0.482188 -0.021780
 N 2.543961 0.261046 0.118638
 C 3.065416 -0.708765 0.886008
 C 4.373773 -0.984895 1.072935
 C 4.735569 -2.080286 1.945981
 O 6.078488 -2.235331 2.034568
 O 3.979942 -2.808175 2.553410
 H 0.962506 1.322954 -0.694730
 H 0.659005 0.723306 0.937489
 H 0.622080 -0.391111 -0.445776
 H 3.171933 0.863037 -0.383968
 H 2.340690 -1.330514 1.406856
 H 5.163688 -0.418644 0.595020
 H 6.213068 -2.982108 2.632940