15
charge = 0
 C 1.076841 0.017560 0.164217
 N 2.513529 0.006805 -0.030159
 C 3.275627 1.239398 -0.052274
 C 3.148674 -1.148460 -0.191403
 N 4.430877 -1.211335 -0.368651
 C 4.932454 -2.495463 -0.519549
 O 4.315004 -3.536508 -0.501609
 H 0.738984 1.045520 0.277023
 H 0.792673 -0.533067 1.064519
 H 0.555874 -0.418134 -0.692082
 H 2.600656 2.080477 0.093613
 H 3.797530 1.349550 -1.005097
 H 4.031988 1.235853 0.735312
 H 2.521413 -2.043991 -0.165230
 H 6.025787 -2.489284 -0.668729