13
charge = 0
 C 1.293958 0.181991 0.343180
 N 2.671996 -0.183423 0.136686
 C 3.468007 0.590964 -0.779703
 C 3.588752 1.988593 -0.365459
 N 3.656082 3.089220 -0.042451
 C 3.251425 -1.237404 0.769585
 O 4.397772 -1.588875 0.626858
 H 0.724594 0.113449 -0.589214
 H 1.211291 1.202071 0.728826
 H 0.850355 -0.499588 1.069317
 H 3.040456 0.567725 -1.788820
 H 4.459822 0.132297 -0.814469
 H 2.542591 -1.754510 1.440566