19
charge = 0
 C 3.067249 0.791925 -0.315615
 N 3.127548 -0.452120 -1.055908
 C 3.526753 -1.604979 -0.253136
 C 2.771354 -2.846051 -0.719387
 N 3.059285 -3.118298 -2.127907
 C 5.040664 -1.821579 -0.276359
 O 5.537152 -1.934684 -1.589651
 H 2.862431 1.615390 -1.002869
 H 3.987610 1.036951 0.238247
 H 2.244950 0.754800 0.404149
 H 3.804408 -0.360014 -1.806135
 H 3.228577 -1.420432 0.785814
 H 1.700399 -2.697740 -0.526530
 H 3.099497 -3.708177 -0.130217
 H 2.620979 -2.399340 -2.693715
 H 2.665111 -4.005208 -2.413278
 H 5.292392 -2.708849 0.325120
 H 5.545590 -0.965773 0.183008
 H 4.936462 -2.554812 -2.043531