17
charge = 0
 C 2.587481 0.354914 1.100506
 N 1.882062 -0.289545 0.029887
 C 2.484620 -1.182530 -0.800542
 C 1.651218 -1.790776 -1.880256
 N 3.726220 -1.447116 -0.606994
 O 4.178634 -2.379884 -1.547359
 C 5.535316 -2.635057 -1.294384
 H 1.904533 1.022604 1.625369
 H 3.435118 0.935471 0.722635
 H 2.986013 -0.378039 1.809217
 H 0.914917 -0.085210 -0.122872
 H 0.626413 -1.418066 -1.853100
 H 1.639567 -2.877003 -1.776642
 H 2.085869 -1.571134 -2.856780
 H 5.851357 -3.362641 -2.043489
 H 5.680993 -3.051870 -0.291910
 H 6.135548 -1.723758 -1.390088