16
charge = 0
 C 0.688146 -0.711738 -0.089105
 N 2.031791 -0.209444 0.106831
 C 3.047101 -1.055659 -0.474584
 C 4.432809 -0.439891 -0.427846
 O 5.402468 -1.123970 -0.193242
 C 4.528337 1.013058 -0.722650
 C 5.697860 1.641485 -0.681926
 H -0.025325 -0.059747 0.418062
 H 0.536612 -1.740261 0.275462
 H 0.447555 -0.699859 -1.155707
 H 2.212205 -0.090222 1.095847
 H 2.807721 -1.188392 -1.539474
 H 3.115723 -2.063120 -0.038040
 H 3.604714 1.528673 -0.959194
 H 6.599201 1.096187 -0.421338
 H 5.785792 2.698610 -0.903586