17
charge = 0
 C 1.141406 1.258662 0.234224
 N 2.245422 0.481577 -0.273034
 C 2.692785 0.803196 -1.605895
 C 2.816601 -0.558308 0.385903
 O 3.733458 -1.212516 -0.083708
 C 2.281713 -0.902671 1.770654
 N 2.639300 0.124156 2.741630
 H 1.294858 2.309756 -0.026029
 H 1.096296 1.195353 1.318843
 H 0.187421 0.940949 -0.204793
 H 1.875917 0.683667 -2.326134
 H 3.507238 0.133785 -1.871803
 H 3.041552 1.839876 -1.652946
 H 2.690053 -1.894566 1.989826
 H 1.190960 -0.989297 1.741778
 H 3.647465 0.209558 2.794122
 H 2.318965 -0.141796 3.664461