17
charge = 0
 C 0.930684 -0.260049 -0.166730
 N 2.369382 -0.261001 -0.100854
 C 3.029349 1.022593 -0.028569
 C 3.297839 1.490470 1.391914
 O 4.252745 0.701491 2.058285
 C 3.071364 -1.425848 -0.249439
 N 4.324587 -1.640444 -0.225937
 H 0.488144 0.217229 0.713667
 H 0.565658 -1.286563 -0.207098
 H 0.569312 0.268887 -1.057187
 H 2.400494 1.761100 -0.538682
 H 3.975202 0.971346 -0.577212
 H 2.353247 1.530672 1.953982
 H 3.703935 2.505118 1.363738
 H 3.940483 -0.208511 2.081025
 H 2.411271 -2.282923 -0.404594
 H 4.867004 -0.795868 -0.053127