15
charge = 0
 C 2.671260 0.242021 1.249057
 N 2.460621 0.102541 -0.180914
 C 2.976371 -1.127656 -0.740632
 C 2.448935 -1.317848 -2.166245
 O 2.675673 -0.192660 -2.974343
 C 4.449428 -1.199499 -0.696592
 N 5.598015 -1.216792 -0.636933
 H 2.289343 1.211096 1.572677
 H 3.725025 0.164662 1.551976
 H 2.106154 -0.529877 1.777217
 H 2.894559 0.879139 -0.665878
 H 2.601536 -1.963322 -0.137978
 H 1.380599 -1.548073 -2.091553
 H 2.955148 -2.162751 -2.637199
 H 1.994522 0.455529 -2.777391