13
charge = 0
 C 1.085625 0.005178 0.125383
 N 2.510018 0.226234 0.221410
 C 3.005630 1.232562 -0.658513
 C 4.489093 1.136482 -0.836476
 O 5.166134 0.215414 -0.471810
 C 5.094240 2.271868 -1.555562
 N 5.549358 3.166030 -2.117594
 H 0.797219 -0.797391 0.805187
 H 0.741624 -0.257452 -0.888140
 H 0.548927 0.906127 0.435125
 H 3.042440 -0.626865 0.112660
 H 2.767318 2.242038 -0.294862
 H 2.589595 1.195076 -1.688599