14
charge = 0
 C 1.096834 0.428772 0.379787
 N 2.332743 -0.023963 -0.215524
 C 3.103709 0.983713 -0.906646
 C 2.802007 -1.284505 -0.178914
 O 3.834480 -1.661594 -0.710424
 C 2.082387 -2.377733 0.607349
 O 1.500853 -2.247399 1.647327
 H 0.477284 0.908361 -0.384391
 H 1.299915 1.163973 1.164895
 H 0.549714 -0.396242 0.822190
 H 2.501868 1.442360 -1.696879
 H 3.984851 0.518508 -1.341604
 H 3.413343 1.768251 -0.209061
 H 2.281013 -3.368191 0.154765