15
charge = 0
 C 2.170899 0.475691 -0.798220
 N 1.634834 -0.065270 0.429008
 C 1.103807 -1.400014 0.401609
 C -0.197806 -1.531396 1.166472
 O -0.630149 -2.574748 1.565801
 N 2.270285 0.375851 1.526629
 C 2.205931 -0.258967 2.629839
 H 3.068317 -0.059450 -1.138726
 H 2.435663 1.516671 -0.622192
 H 1.414817 0.429221 -1.584149
 H 1.814818 -2.158335 0.763263
 H 0.866836 -1.649364 -0.637651
 H -0.750683 -0.576037 1.296402
 H 2.711599 0.189019 3.476792
 H 1.676633 -1.198382 2.788923