15
charge = 0
 C 1.525687 0.878123 -0.617182
 N 1.758714 -0.195281 -1.538697
 C 3.000874 -0.541684 -1.939343
 C 2.996718 -1.693256 -2.905712
 O 1.985401 -2.234081 -3.270394
 N 4.040585 0.070212 -1.517782
 C 5.364936 -0.308165 -1.952626
 H 0.454390 0.971988 -0.443443
 H 1.910553 1.824263 -1.009723
 H 2.029878 0.694423 0.336458
 H 1.000079 -0.731807 -1.922162
 H 3.984254 -2.023054 -3.270087
 H 6.086431 0.348539 -1.464396
 H 5.515179 -0.196804 -3.033621
 H 5.634820 -1.335607 -1.678681