15
charge = 0
 C 0.999495 -0.128461 -0.284681
 N 2.437861 0.019972 -0.232299
 C 3.067354 -0.701553 0.584142
 N 4.442306 -0.652561 0.727896
 C 5.249885 0.249477 -0.068466
 C 5.061964 -1.466408 1.635705
 O 6.251498 -1.487914 1.824002
 H 0.593053 0.553191 -1.031795
 H 0.527509 0.110428 0.675099
 H 0.702074 -1.145208 -0.565396
 H 2.599276 -1.432696 1.255672
 H 4.581970 0.804488 -0.721571
 H 5.972456 -0.319106 -0.655128
 H 5.798991 0.929772 0.583638
 H 4.351708 -2.110433 2.185091