15
charge = 0
 C 0.755710 0.196396 -0.242382
 N 2.163237 0.262832 0.045664
 C 2.722586 1.388607 -0.033536
 N 4.072308 1.519271 0.230879
 C 4.749403 2.713215 0.165923
 C 6.217153 2.635477 0.492475
 O 4.204584 3.751543 -0.132386
 H 0.224101 -0.203909 0.625590
 H 0.584450 -0.502216 -1.066266
 H 0.311810 1.166074 -0.507898
 H 2.238551 2.330949 -0.302643
 H 4.558389 0.673712 0.483671
 H 6.560770 1.631079 0.741701
 H 6.420423 3.303590 1.330763
 H 6.781725 3.006579 -0.364244