15
charge = 0
 C 0.510093 1.793116 -0.356798
 N 1.906544 2.103751 -0.221024
 C 2.708074 1.137489 -0.053240
 N 4.043364 1.313750 0.112937
 C 4.646377 2.596073 -0.015098
 C 6.135915 2.486228 -0.066821
 O 6.732192 1.443086 -0.039532
 H 0.131449 2.175218 -1.309913
 H -0.064168 2.290235 0.431437
 H 0.290330 0.714984 -0.309647
 H 2.393369 0.085788 -0.012618
 H 4.667053 0.524234 0.085983
 H 4.379007 3.268371 0.813737
 H 4.306770 3.124524 -0.919600
 H 6.673551 3.453044 -0.136203