15
charge = 0
 C 1.016581 -0.208107 -0.076104
 N 2.398264 0.133272 0.186077
 C 2.820838 0.208527 1.504477
 N 2.136215 0.011761 2.550018
 C 3.238902 0.370029 -0.896830
 C 4.675231 0.724792 -0.612069
 O 2.825344 0.292521 -2.030813
 H 0.781322 -1.194934 0.330803
 H 0.874279 -0.218523 -1.152796
 H 0.347184 0.531009 0.371525
 H 3.868869 0.469433 1.618704
 H 1.168056 -0.226850 2.344164
 H 5.187918 -0.070004 -0.066341
 H 4.756721 1.642975 -0.026665
 H 5.163286 0.869898 -1.572550