15
charge = 0
 C 0.964258 0.182862 0.477882
 N 2.336762 0.581375 0.297412
 C 3.025481 1.282552 1.348325
 N 2.904280 0.281983 -0.834338
 C 4.133858 0.600770 -1.083049
 C 4.658392 0.214236 -2.379348
 O 5.786268 0.442461 -2.753742
 H 0.860116 -0.498560 1.328735
 H 0.644005 -0.326393 -0.427996
 H 0.320330 1.052120 0.647825
 H 2.346217 1.415126 2.188271
 H 3.363731 2.268155 1.008356
 H 3.902454 0.719812 1.688402
 H 4.792108 1.131025 -0.397164
 H 3.926230 -0.321306 -3.018682