17
charge = 0
 C 1.158266 0.148101 0.570909
 N 2.494790 -0.249180 0.175174
 C 2.862255 -1.551963 0.693344
 N 2.649887 -0.192399 -1.196761
 C 3.524578 0.638506 -1.834042
 C 4.356224 1.533980 -0.957451
 O 3.601462 0.630554 -3.045313
 H 1.094076 0.161598 1.660511
 H 0.382717 -0.536490 0.188013
 H 0.951244 1.150705 0.196229
 H 2.797392 -1.537942 1.782923
 H 3.889144 -1.780374 0.407415
 H 2.206751 -2.356315 0.318981
 H 2.089566 -0.795214 -1.792730
 H 3.723537 2.180392 -0.346781
 H 4.993266 2.135520 -1.601648
 H 4.967645 0.947142 -0.269662