17
charge = 0
 C 0.901430 -1.294708 0.127404
 N 2.304323 -1.014261 0.234690
 C 2.811381 -0.229930 1.229232
 N 2.145301 0.438543 2.092087
 C 4.316396 -0.144590 1.257503
 C 5.027820 -1.471207 1.430367
 O 4.911114 -2.223508 0.227648
 H 0.735109 -1.960703 -0.718855
 H 0.329302 -0.378839 -0.052964
 H 0.495749 -1.773838 1.028459
 H 2.957713 -1.638855 -0.210955
 H 1.142351 0.306566 1.974612
 H 4.575374 0.511625 2.088093
 H 4.675842 0.321533 0.333628
 H 4.593365 -2.021468 2.274782
 H 6.085084 -1.284299 1.654378
 H 5.287658 -3.094689 0.369499