17
charge = 0
 C 0.970281 1.042404 -0.292285
 N 2.262545 0.423031 -0.189441
 C 3.173175 0.457818 -1.192679
 N 3.072178 1.072919 -2.306234
 C 4.465909 -0.307731 -0.951613
 C 5.263407 0.282823 0.203363
 O 5.229292 -0.307469 -2.118299
 H 0.417494 0.872529 0.630703
 H 0.382932 0.635780 -1.124242
 H 1.062533 2.123861 -0.433425
 H 2.428242 -0.210848 0.571129
 H 2.193619 1.564883 -2.429615
 H 4.190621 -1.345411 -0.700582
 H 4.722779 0.227790 1.151941
 H 6.199203 -0.267965 0.308582
 H 5.500295 1.327957 -0.006154
 H 4.727297 0.260232 -2.734938