16
charge = 0
 C 1.247226 0.069777 -0.360438
 N 2.679202 0.170428 -0.233918
 C 3.251882 0.674080 0.884318
 O 2.587505 1.066205 1.827717
 C 4.740350 0.714649 0.877859
 C 5.393822 1.860000 1.604733
 C 5.433441 0.499815 2.197087
 H 1.005740 -0.356106 -1.333770
 H 0.777250 1.052176 -0.275142
 H 0.828256 -0.568035 0.421346
 H 3.265769 -0.145043 -0.984275
 H 5.238553 0.341906 -0.010414
 H 4.716386 2.575018 2.053775
 H 6.298163 2.269106 1.172698
 H 4.783310 0.308896 3.041297
 H 6.366244 -0.049374 2.182727