16
charge = 0
 C 1.315654 0.403750 -0.367203
 N 2.735609 0.262381 -0.174360
 C 3.236227 -0.471857 0.850480
 O 2.508464 -1.039263 1.646555
 C 4.718052 -0.519207 0.911800
 C 5.336027 -1.204361 1.867752
 C 6.806051 -1.326050 2.032984
 H 1.134841 1.028730 -1.241136
 H 0.846722 0.865347 0.505100
 H 0.843175 -0.569498 -0.520253
 H 3.368760 0.714174 -0.808329
 H 5.288294 0.018927 0.157487
 H 4.699669 -1.716979 2.586628
 H 7.353547 -0.777635 1.264524
 H 7.112471 -2.376393 1.994930
 H 7.115858 -0.951765 3.014049