16
charge = 0
 C 1.734169 -2.289048 -1.751942
 N 3.138398 -2.213985 -1.446663
 C 3.752351 -1.052071 -1.115669
 O 3.167848 0.013211 -1.033508
 C 5.226455 -1.147808 -0.847147
 C 5.733531 -0.207235 0.194157
 C 6.010855 -1.954063 -1.557972
 H 1.566479 -2.680856 -2.758929
 H 1.330307 -1.279510 -1.693524
 H 1.204408 -2.922592 -1.035339
 H 3.677675 -3.059369 -1.390793
 H 5.286216 -0.425283 1.168388
 H 5.440889 0.813848 -0.059170
 H 6.818517 -0.264667 0.283805
 H 5.624514 -2.581053 -2.353848
 H 7.082097 -1.983040 -1.391047