14
charge = 0
 C 1.226675 -0.501807 -0.031009
 N 2.536373 0.034300 0.230639
 C 3.166316 0.859505 -0.625353
 O 2.710713 1.233641 -1.686504
 C 4.555128 1.337653 -0.191728
 C 5.043884 0.856311 1.085089
 C 5.422384 0.441325 2.146949
 H 1.248348 -1.593861 -0.072177
 H 0.897123 -0.117972 -0.995255
 H 0.513017 -0.192416 0.736931
 H 3.017039 -0.205911 1.082756
 H 4.518196 2.430795 -0.197952
 H 5.241335 1.052537 -0.994347
 H 5.776378 0.084710 3.085551