14
charge = 0
 C 0.746923 -0.132754 -0.115343
 N 2.177542 -0.192958 -0.240292
 C 3.017886 0.349021 0.651283
 O 2.709621 0.950173 1.662449
 C 4.496053 0.133553 0.267755
 C 5.495913 0.707250 1.212005
 O 4.775563 -0.467218 -0.740624
 H 0.314512 -1.134655 -0.052845
 H 0.299041 0.389812 -0.964473
 H 0.512609 0.411458 0.798658
 H 2.615535 -0.656542 -1.022371
 H 5.341121 0.287368 2.208990
 H 5.327791 1.782146 1.314833
 H 6.503881 0.503946 0.857074