17
charge = 0
 C 0.775315 0.335828 -1.314203
 N 1.727619 -0.350226 -2.145388
 C 2.874392 -0.851506 -1.610145
 O 3.725431 -1.487148 -2.459408
 C 3.416686 -1.610980 -3.827557
 N 3.133523 -0.729606 -0.377388
 C 4.366785 -1.285027 0.120798
 H -0.063700 0.654364 -1.933493
 H 1.225424 1.211811 -0.840196
 H 0.407245 -0.315242 -0.517171
 H 1.537685 -0.454916 -3.120972
 H 4.247496 -2.151511 -4.278603
 H 3.332434 -0.634327 -4.317347
 H 2.499568 -2.188709 -3.988711
 H 4.432657 -1.093488 1.193046
 H 5.251344 -0.842195 -0.354268
 H 4.432795 -2.369832 -0.031094