15
charge = 0
 C 1.034284 0.505577 -0.889326
 N 2.296015 -0.033843 -0.448367
 C 3.200056 0.763955 0.181013
 O 2.997011 1.941110 0.398364
 N 4.368772 0.123996 0.551939
 C 5.394265 0.782623 1.200237
 C 6.539620 0.224448 1.581901
 H 0.461430 -0.289946 -1.364921
 H 1.180173 1.314598 -1.608516
 H 0.459013 0.901992 -0.049713
 H 2.496460 -1.002713 -0.612145
 H 4.487928 -0.853881 0.348167
 H 5.167905 1.828034 1.372316
 H 6.763997 -0.822638 1.408466
 H 7.287561 0.819698 2.085184