15
charge = 0
 C 2.846063 0.473958 -0.724812
 N 2.586067 0.322876 0.700633
 N 3.074924 -0.854962 1.216142
 C 4.127333 -1.082383 2.199734
 C 3.745290 -2.576089 2.138028
 C 2.648151 -2.153192 1.151190
 O 1.743255 -2.679144 0.562922
 H 2.386243 1.406523 -1.057067
 H 2.455115 -0.353310 -1.327546
 H 3.922456 0.552910 -0.886314
 H 1.590949 0.367460 0.889070
 H 3.941283 -0.596532 3.160788
 H 5.129737 -0.832438 1.844623
 H 3.361809 -3.000173 3.065188
 H 4.495716 -3.237414 1.706731