15
charge = 0
 C 0.867995 -0.395421 0.205581
 N 2.305987 -0.388848 0.114801
 N 2.985704 0.615791 -0.461802
 C 2.362393 1.609193 -0.953337
 C 3.041970 -1.446197 0.633302
 C 4.533968 -1.354794 0.494504
 O 2.484638 -2.380598 1.164571
 H 0.513246 0.467760 0.777092
 H 0.580761 -1.312803 0.711972
 H 0.417949 -0.368439 -0.791560
 H 2.968971 2.385881 -1.403984
 H 1.280463 1.729652 -0.951871
 H 4.918448 -0.461593 0.988163
 H 4.825535 -1.283127 -0.553896
 H 4.959163 -2.248578 0.945063