17
charge = 0
 C 5.947754 -0.965431 -0.373659
 N 6.004641 0.157448 0.531084
 N 4.804367 0.740644 0.768850
 C 4.611044 1.355743 1.863288
 C 3.339312 2.087488 2.140038
 C 2.411181 2.197956 0.941702
 O 1.974910 0.948441 0.467428
 H 6.966362 -1.296326 -0.582119
 H 5.494548 -0.641158 -1.311160
 H 5.371653 -1.816321 0.014701
 H 6.542987 -0.025030 1.373855
 H 5.385160 1.365152 2.642676
 H 3.583636 3.094983 2.500801
 H 2.815054 1.590790 2.966993
 H 2.915444 2.766629 0.147658
 H 1.516394 2.756012 1.228195
 H 2.778752 0.489380 0.190989