15
charge = 0
 C 2.107095 1.463494 0.728210
 N 2.350494 0.043953 0.491572
 N 2.853089 -0.582418 1.632022
 C 1.964631 -1.203812 2.500238
 C 0.650702 -1.286062 2.330968
 C 4.203906 -0.644915 1.804327
 O 5.002979 -0.168381 1.031954
 H 1.761250 1.903161 -0.208451
 H 2.997491 2.003000 1.070087
 H 1.313734 1.574297 1.468843
 H 3.079540 -0.056363 -0.208247
 H 2.455429 -1.619933 3.373730
 H 0.165872 -0.876981 1.455164
 H 0.049513 -1.788389 3.075397
 H 4.488574 -1.201949 2.713004