17
charge = 0
 C 2.705292 0.622756 1.128517
 N 2.775975 -0.144022 -0.108531
 N 3.142730 -1.474040 0.139283
 C 2.042271 -2.401932 0.131280
 C 4.461463 -1.793701 0.032709
 C 4.840071 -3.247618 0.163030
 O 5.298914 -0.929124 -0.171492
 H 2.477315 1.659018 0.871797
 H 3.635542 0.593445 1.707747
 H 1.888185 0.246625 1.748164
 H 3.531250 0.234319 -0.674264
 H 1.267495 -2.055914 0.818745
 H 2.371264 -3.384590 0.461643
 H 1.599685 -2.484246 -0.866930
 H 4.512014 -3.668584 1.115774
 H 5.923779 -3.309441 0.098713
 H 4.401853 -3.847062 -0.638485