17
charge = 0
 C 2.066178 0.733369 0.980223
 N 3.366220 0.624155 0.366110
 N 3.420935 -0.184759 -0.707828
 C 4.532080 -0.704071 -1.043800
 C 4.636578 -1.553753 -2.266221
 O 5.555217 -1.050049 -3.211596
 C 5.099580 0.111856 -3.855966
 H 2.096040 1.528259 1.727326
 H 1.731036 -0.194496 1.462846
 H 1.338592 1.004538 0.215116
 H 4.134935 0.517489 1.021813
 H 5.449338 -0.530425 -0.465669
 H 3.634798 -1.664445 -2.702512
 H 5.012753 -2.547169 -2.002845
 H 5.870561 0.407501 -4.567950
 H 4.927714 0.935327 -3.152270
 H 4.163344 -0.075318 -4.399774