11
charge = 0
 C 1.339949 -0.650500 0.833747
 N 2.539076 -0.302331 0.616566
 N 3.175396 -0.856038 -0.424544
 C 4.471717 -0.553407 -0.751558
 O 5.012915 -1.074843 -1.700265
 C 5.132060 0.412603 0.099699
 C 5.765669 1.201482 0.743436
 H 0.832276 -0.199036 1.677035
 H 0.801217 -1.376398 0.217756
 H 2.717629 -1.535067 -1.026303
 H 6.322376 1.903145 1.319731