13
charge = 0
 C 0.918471 0.119815 0.110679
 N 2.330832 -0.061989 -0.092770
 N 3.016865 1.064150 -0.556079
 C 3.069062 -1.126787 0.304432
 O 4.284190 -1.157814 0.201587
 C 2.335696 -2.240870 0.878663
 C 1.815746 -3.211813 1.356344
 H 0.428010 0.358575 -0.836842
 H 0.741060 0.940881 0.809670
 H 0.490281 -0.799043 0.506179
 H 3.127163 0.978684 -1.564457
 H 3.957157 0.995771 -0.172252
 H 1.360478 -4.075449 1.782245