15
charge = 0
 C 2.001808 0.433156 -1.284756
 N 2.473906 0.018803 0.030918
 N 3.144612 1.047759 0.683538
 C 4.498174 1.163629 0.595311
 O 5.156155 0.467422 -0.156247
 C 5.076372 2.199956 1.487284
 C 6.383981 2.413023 1.516894
 H 1.562660 -0.438153 -1.774217
 H 2.797342 0.838212 -1.920370
 H 1.219868 1.185742 -1.169184
 H 3.157520 -0.723838 -0.086964
 H 2.661871 1.446042 1.472257
 H 4.398232 2.781813 2.105623
 H 7.038906 1.820919 0.886967
 H 6.824683 3.168405 2.155947