15
charge = 0
 C 1.979294 -0.769263 -0.138043
 N 3.164562 -0.350579 -0.273914
 O 3.247667 0.678692 -1.178055
 C 4.588537 1.134974 -1.261595
 C 4.677472 2.101952 -2.397745
 C 4.407974 3.531712 -2.161240
 N 5.768998 3.067984 -2.414406
 H 1.831986 -1.586541 0.557258
 H 1.137547 -0.344937 -0.683520
 H 5.250986 0.276819 -1.416353
 H 4.875605 1.627556 -0.322686
 H 4.444909 1.684367 -3.373130
 H 4.135953 3.827400 -1.152471
 H 3.976559 4.137919 -2.949584
 H 6.292161 3.023346 -1.545427