12
charge = 0
 C 0.821062 -0.163139 -0.006161
 N 2.243664 -0.090958 0.080821
 O 2.893305 -0.319068 -1.104658
 C 3.052334 0.162334 1.120381
 O 4.271553 0.175483 0.962972
 C 2.413229 0.409179 2.390422
 C 1.951968 0.623740 3.477405
 H 0.448730 0.583630 -0.712185
 H 0.409827 0.031569 0.982199
 H 0.514545 -1.157170 -0.341843
 H 3.829438 -0.221987 -0.818840
 H 1.549824 0.815099 4.445088