18
charge = 0
 C 1.310330 0.522897 0.319267
 O 1.516844 -0.619876 -0.472180
 C 2.627110 -0.501138 -1.292410
 C 2.610576 -1.280141 -2.556275
 C 2.506458 0.226545 -2.594375
 C 3.641241 1.046234 -3.131998
 N 3.554529 1.143285 -4.581376
 H 0.427793 0.338367 0.932072
 H 1.140131 1.414224 -0.297840
 H 2.167290 0.714402 0.979141
 H 3.573839 -0.417764 -0.756373
 H 1.712961 -1.849445 -2.761215
 H 3.536007 -1.744991 -2.877634
 H 1.515872 0.609577 -2.818762
 H 4.588618 0.611808 -2.770786
 H 3.585870 2.060674 -2.721915
 H 3.579877 0.217334 -4.992002
 H 4.339944 1.659909 -4.956859