18
charge = 0
 C 1.088130 -0.058483 0.209958
 O 2.482156 -0.044948 0.065416
 C 2.919040 -0.589392 -1.142714
 C 4.433264 -0.608036 -1.337906
 C 4.271247 -1.955707 -2.065448
 C 2.913442 -2.127718 -1.364654
 N 1.887049 -2.835498 -2.082020
 H 0.848458 0.464058 1.136529
 H 0.689670 -1.079658 0.273277
 H 0.592127 0.455081 -0.626033
 H 2.412336 -0.097155 -1.991106
 H 4.927200 -0.730547 -0.372063
 H 4.890403 0.223725 -1.872887
 H 5.024235 -2.727141 -1.907568
 H 4.132831 -1.817467 -3.141302
 H 3.061356 -2.607854 -0.391459
 H 1.659705 -2.366928 -2.950697
 H 1.035231 -2.917423 -1.542535