18
charge = 0
 C 1.372964 0.672938 -1.056345
 O 2.062570 -0.156195 -0.156142
 C 2.811713 -1.126969 -0.800251
 C 3.062012 -2.404194 -0.060943
 C 2.526313 -2.623542 1.325280
 C 2.154473 -2.406236 -1.255068
 N 2.522070 -3.121053 -2.440913
 H 0.809873 1.397498 -0.467477
 H 0.677348 0.097676 -1.680454
 H 2.066329 1.213276 -1.715196
 H 3.619573 -0.738372 -1.423864
 H 4.045853 -2.832624 -0.239047
 H 3.216436 -2.234750 2.078379
 H 1.572450 -2.113048 1.460599
 H 2.378189 -3.688920 1.518906
 H 1.096964 -2.473302 -1.008934
 H 3.505143 -3.355902 -2.440806
 H 2.331725 -2.583078 -3.277214