18
charge = 0
 C 2.438675 -0.957731 0.645286
 O 2.073027 0.241756 0.021563
 C 3.089463 1.218776 0.061251
 C 2.669515 2.418183 -0.796657
 C 2.390142 3.525313 0.210169
 N 3.380434 3.243998 1.236526
 C 3.296238 1.812695 1.470104
 H 1.617756 -1.662129 0.507453
 H 2.613204 -0.831116 1.722254
 H 3.349163 -1.379965 0.195963
 H 4.020085 0.771195 -0.313624
 H 1.808252 2.157619 -1.411869
 H 3.489350 2.712303 -1.453946
 H 1.353460 3.446093 0.578585
 H 2.527908 4.527078 -0.202742
 H 3.238054 3.781447 2.081335
 H 2.420670 1.522076 2.075193
 H 4.196215 1.446530 1.970166