17
charge = 0
 C 2.608148 0.119439 1.311662
 O 1.852244 0.341595 0.146612
 C 2.617543 0.809872 -0.905825
 C 1.912215 1.694184 -1.894378
 N 0.534142 2.060752 -1.770967
 C 2.932612 2.288707 -0.975034
 N 4.174022 2.799423 -1.465954
 H 1.921182 -0.223476 2.085871
 H 3.103234 1.038477 1.648982
 H 3.373838 -0.650642 1.149539
 H 3.378264 0.118285 -1.273127
 H 2.230311 1.579544 -2.926740
 H 0.303662 2.193351 -0.793630
 H -0.052135 1.298673 -2.093375
 H 2.495611 2.855191 -0.152196
 H 4.183781 2.901475 -2.469637
 H 4.966637 2.240950 -1.183013