14
charge = 0
 C 1.170059 -0.023952 0.245415
 O 2.550019 -0.071352 -0.050566
 C 2.808541 -0.561216 -1.320970
 C 4.308939 -0.705127 -1.639639
 N 4.052597 -2.117357 -1.895888
 C 2.742562 -2.101249 -1.520952
 O 1.912341 -2.957751 -1.395126
 H 1.076159 0.380599 1.252574
 H 0.717677 -1.019302 0.206908
 H 0.642103 0.635151 -0.456750
 H 2.241852 -0.020067 -2.092153
 H 4.935085 -0.513684 -0.765822
 H 4.672804 -0.144429 -2.502888
 H 4.667572 -2.881365 -2.128043