18
charge = 0
 C 2.285007 0.557063 -1.018965
 O 1.924647 -0.280261 0.045730
 C 3.016587 -0.957153 0.594953
 C 2.575274 -1.923999 1.695215
 N 2.685140 -3.035498 0.748225
 C 3.230966 -4.278462 1.206453
 C 3.478902 -2.216572 -0.168435
 H 1.378177 1.052559 -1.365915
 H 2.720668 -0.004805 -1.855737
 H 3.009270 1.320368 -0.700295
 H 3.809395 -0.246461 0.858882
 H 1.576068 -1.756646 2.105796
 H 3.307386 -1.973874 2.516151
 H 2.561736 -4.731294 1.942546
 H 4.228327 -4.166754 1.672914
 H 3.324293 -4.976115 0.370183
 H 3.197155 -2.296900 -1.222781
 H 4.564521 -2.377197 -0.070792