13
charge = 0
 C 1.160071 -0.330958 -0.249313
 O 2.155540 0.463899 0.365482
 C 2.832721 -0.121687 1.363443
 C 3.835043 0.465217 2.092858
 N 4.214047 -0.511034 2.984882
 C 3.451167 -1.596304 2.758128
 N 2.600592 -1.391874 1.777893
 H 0.718784 0.293356 -1.024708
 H 0.393983 -0.632850 0.469506
 H 1.590744 -1.231855 -0.693861
 H 4.286529 1.440597 2.055733
 H 4.933177 -0.425078 3.680582
 H 3.547713 -2.508627 3.326676