12
charge = 0
 C 2.232863 -0.744812 0.772371
 O 2.588415 0.424010 0.052356
 C 3.122791 0.230367 -1.154232
 C 3.538943 1.185590 -2.022979
 O 4.013995 0.533509 -3.126492
 C 3.854948 -0.761280 -2.854024
 N 3.331668 -1.010580 -1.700650
 H 1.820318 -0.394411 1.716591
 H 3.105776 -1.375260 0.956379
 H 1.485161 -1.329034 0.231148
 H 3.568652 2.259294 -2.020517
 H 4.170660 -1.468473 -3.604940