15
charge = 0
 C 1.333783 0.656278 0.501107
 O 2.322436 0.083498 -0.324248
 C 2.926464 0.857651 -1.230538
 N 3.825087 0.402262 -2.004531
 C 4.245574 1.517329 -2.841689
 C 3.409274 2.756754 -2.410818
 N 2.597611 2.180625 -1.360752
 H 0.983716 -0.142924 1.151507
 H 0.485446 1.029742 -0.082410
 H 1.741307 1.460546 1.122987
 H 4.085435 1.277443 -3.897289
 H 5.317557 1.698653 -2.717549
 H 2.793491 3.149736 -3.225927
 H 4.034346 3.572761 -2.034656
 H 1.915074 2.679067 -0.825776