18
charge = 0
 C 1.126896 1.695667 -0.330886
 O 2.480374 2.005710 -0.506466
 C 3.317564 0.896397 -0.307398
 C 4.745988 1.316806 -0.496526
 C 5.413238 2.197528 0.573370
 N 6.626453 1.372093 0.450007
 C 5.847745 0.292467 -0.175302
 H 0.553547 2.606484 -0.505223
 H 0.923069 1.336856 0.688100
 H 0.793725 0.924553 -1.040129
 H 3.060429 0.092448 -1.017646
 H 3.173205 0.489342 0.707509
 H 4.878304 1.742944 -1.493065
 H 4.898826 2.106528 1.540356
 H 5.554099 3.256742 0.347072
 H 7.088779 1.134871 1.317783
 H 5.491063 -0.473861 0.528717
 H 6.342416 -0.204774 -1.013875