18
charge = 0
 C 1.069087 -0.301844 -2.055505
 O 2.429894 -0.080387 -2.297435
 C 3.249506 -0.597881 -1.282090
 C 4.698651 -0.370455 -1.658068
 C 5.120106 -1.138352 -2.878538
 C 6.516939 -1.576521 -3.039324
 N 5.462721 -2.555303 -2.772066
 H 0.511181 0.128663 -2.887429
 H 0.741533 0.177844 -1.122069
 H 0.840365 -1.374814 -1.991186
 H 3.052752 -1.674092 -1.149707
 H 3.023252 -0.103287 -0.324331
 H 5.331227 -0.656243 -0.809194
 H 4.850885 0.701479 -1.823839
 H 4.553053 -0.905879 -3.774886
 H 7.213561 -1.334551 -2.241549
 H 6.962178 -1.639215 -4.026309
 H 5.491219 -2.831151 -1.794984