16
charge = 0
 C 3.813319 0.951950 0.603526
 O 3.060340 0.123951 -0.251091
 C 3.600510 -1.061458 -0.579951
 C 4.777843 -1.561976 -0.203056
 C 5.266540 -2.886479 -0.640902
 C 4.933582 -3.443999 -1.964744
 N 6.294038 -2.987894 -1.686932
 H 3.225952 1.855598 0.756123
 H 4.776659 1.212662 0.151593
 H 3.992266 0.463870 1.567625
 H 2.930333 -1.614153 -1.229603
 H 5.423557 -1.009364 0.472210
 H 5.443144 -3.597756 0.163243
 H 4.317920 -2.848045 -2.630218
 H 4.825172 -4.516241 -2.086091
 H 6.424324 -2.069475 -2.101112