16
charge = 0
 C 1.277439 0.302468 -0.388589
 O 2.651712 0.072816 -0.586431
 C 3.202716 0.547000 -1.724758
 C 2.548812 1.182382 -2.698611
 C 4.657031 0.261209 -1.721500
 C 5.172471 -0.924469 -2.444338
 N 5.477134 0.424465 -2.905400
 H 1.033294 -0.112497 0.587821
 H 0.677324 -0.196926 -1.156781
 H 1.051776 1.374126 -0.399725
 H 1.481506 1.347774 -2.678879
 H 3.088538 1.575813 -3.548063
 H 5.149346 0.541433 -0.794123
 H 4.450056 -1.511087 -3.002541
 H 6.011892 -1.477953 -2.038142
 H 4.898354 0.652658 -3.706229