14
charge = 0
 C 1.337815 -0.091561 -0.424243
 O 2.696518 0.152327 -0.136853
 C 2.997858 1.311732 0.472593
 C 2.152612 2.288721 0.793523
 C 4.475163 1.383072 0.746139
 C 4.923284 0.363671 1.686603
 N 5.284676 -0.429053 2.435693
 H 1.294374 -1.077965 -0.881317
 H 0.944386 0.654852 -1.122029
 H 0.738318 -0.082809 0.491410
 H 1.094297 2.240157 0.581630
 H 2.523080 3.172312 1.292843
 H 4.731719 2.365516 1.144554
 H 5.025489 1.246027 -0.190534