14
charge = 0
 C 1.332785 0.224531 0.074798
 O 2.700052 -0.088685 0.127238
 C 3.021108 -1.218962 -0.621227
 C 4.471407 -1.519016 -0.543171
 C 5.346566 -0.796904 0.153959
 C 6.728924 -1.120422 0.201224
 N 7.853997 -1.365434 0.252899
 H 1.179627 1.115713 0.682325
 H 0.718713 -0.592397 0.476701
 H 1.008384 0.432463 -0.953553
 H 2.741553 -1.083541 -1.681036
 H 2.455504 -2.099812 -0.269203
 H 4.805604 -2.388494 -1.101257
 H 5.021956 0.072660 0.713895