18
charge = 0
 C 1.606824 1.103463 2.235037
 O 2.952150 1.087336 1.849512
 C 3.104580 1.085619 0.448678
 C 4.556603 1.127033 0.085484
 C 5.097925 0.189874 -0.683224
 C 5.320600 2.303009 0.618834
 N 6.743420 2.231429 0.340883
 H 1.575595 1.106071 3.324891
 H 1.069754 0.217868 1.866608
 H 1.089715 1.999020 1.861411
 H 2.590286 1.967033 0.026046
 H 2.634875 0.192692 0.012523
 H 4.509573 -0.649217 -1.037978
 H 6.133628 0.251422 -0.994146
 H 5.076229 2.397666 1.686993
 H 4.924023 3.208732 0.140964
 H 7.161013 1.472028 0.866158
 H 7.199907 3.082934 0.640436