14
charge = 0
 C 1.371321 0.164818 0.362447
 O 2.774445 0.120164 0.400211
 C 3.284972 -1.033564 -0.187682
 C 4.785013 -1.024960 -0.118121
 C 5.504156 -0.048524 0.429198
 C 5.419820 -2.167867 -0.694759
 N 5.895721 -3.103784 -1.168868
 H 1.063480 1.094106 0.840463
 H 0.928718 -0.680586 0.905396
 H 0.997632 0.152509 -0.669834
 H 2.975635 -1.112453 -1.242758
 H 2.907991 -1.937651 0.317896
 H 5.007206 0.809667 0.861311
 H 6.585001 -0.095496 0.451209