12
charge = 0
 C 0.938790 -0.053126 -0.065876
 O 2.344679 -0.041096 -0.050266
 C 2.844508 0.987661 0.754790
 C 4.295305 0.968690 0.746587
 C 5.499263 0.975808 0.757977
 C 6.866440 0.982767 0.769711
 N 8.021343 0.991045 0.781503
 H 0.633792 -0.876530 -0.709898
 H 0.533423 0.885214 -0.467282
 H 0.527201 -0.212873 0.939611
 H 2.496297 0.884347 1.795598
 H 2.502578 1.973654 0.399684