16
charge = 0
 C 1.680446 0.119985 0.511630
 O 2.973752 -0.101007 0.017443
 C 3.061928 -1.262972 -0.765723
 C 4.470125 -1.379151 -1.301205
 C 4.870669 -0.198293 -2.188407
 C 4.064966 -0.110378 -3.396710
 N 3.416444 -0.061787 -4.345102
 H 1.704772 1.038534 1.097982
 H 1.350563 -0.705535 1.157414
 H 0.953383 0.235557 -0.303276
 H 2.339223 -1.220014 -1.595375
 H 2.818370 -2.150924 -0.163100
 H 4.562712 -2.313992 -1.859792
 H 5.169296 -1.425804 -0.462231
 H 5.919933 -0.279458 -2.484100
 H 4.757307 0.735459 -1.631936