15
charge = 0
 C 1.096591 0.172541 -0.687930
 O 1.200848 -1.182062 -1.078504
 C 2.448827 -1.681111 -1.186969
 C 2.490861 -3.081981 -1.595831
 C 1.445400 -3.758801 -2.061474
 N 3.448964 -0.937565 -0.925155
 N 4.717761 -1.476873 -1.042079
 H 1.535360 0.331441 0.299912
 H 0.030509 0.393545 -0.667652
 H 1.608055 0.826236 -1.399066
 H 3.446777 -3.577528 -1.464707
 H 0.479838 -3.284468 -2.187462
 H 1.531028 -4.806762 -2.322830
 H 5.375201 -0.711872 -1.007055
 H 4.856383 -1.980021 -1.912607