17
charge = 0
 C 3.070090 2.654110 -0.216443
 O 2.801011 1.277423 -0.142795
 C 3.237638 0.571520 -1.283261
 C 4.731850 0.477570 -1.384676
 C 5.495655 -0.098832 -0.234486
 N 5.269067 0.900694 -2.461652
 N 6.624277 0.846617 -2.569925
 H 2.675605 3.108502 0.692776
 H 2.579128 3.109420 -1.087108
 H 4.145104 2.862465 -0.283546
 H 2.855499 1.026373 -2.205942
 H 2.805549 -0.430009 -1.183072
 H 4.837896 -0.274911 0.615734
 H 6.295116 0.579165 0.082039
 H 5.967071 -1.053043 -0.502930
 H 6.897950 0.894211 -3.538266
 H 7.080384 0.082635 -2.082428