17
charge = 0
 C 2.498678 2.463473 -2.587033
 O 3.662468 2.091857 -1.904043
 C 3.461420 1.985831 -0.516891
 C 4.775189 1.619838 0.146551
 C 5.820254 2.671288 -0.006644
 N 6.318599 3.242538 1.010073
 N 7.211216 4.252343 0.814369
 H 2.740777 2.517379 -3.648849
 H 2.131389 3.444812 -2.255406
 H 1.694183 1.728133 -2.443311
 H 2.704850 1.214757 -0.302938
 H 3.086007 2.939077 -0.113831
 H 5.125030 0.678553 -0.293578
 H 4.606462 1.451260 1.212454
 H 6.126287 2.943579 -1.024303
 H 7.833703 4.328121 1.603070
 H 7.715977 4.214241 -0.067070