14
charge = 0
 C 1.411778 0.623594 -0.378172
 O 2.784084 0.696076 -0.081681
 C 3.156906 1.574014 0.880696
 C 2.344680 2.375777 1.572815
 C 4.612657 1.506855 1.047271
 N 5.217064 2.232234 1.893043
 O 6.573798 2.006841 1.880411
 H 1.304898 -0.123426 -1.162721
 H 1.033975 1.587858 -0.735362
 H 0.833930 0.318054 0.500949
 H 1.275636 2.399123 1.423835
 H 2.777010 3.030595 2.315420
 H 5.153185 0.805173 0.411654
 H 6.903100 2.608431 2.554263