16
charge = 0
 C 1.292813 0.073525 -0.516496
 O 2.676837 0.228142 -0.368128
 C 3.011068 1.247526 0.537555
 C 4.520966 1.318516 0.663250
 C 5.111644 0.076077 1.232312
 N 5.787155 0.138161 2.300874
 O 6.256029 -1.106969 2.687569
 H 1.125660 -0.730088 -1.233920
 H 0.823176 0.992096 -0.895592
 H 0.812378 -0.192929 0.435141
 H 2.556878 1.048531 1.520530
 H 2.621622 2.214366 0.183120
 H 4.795014 2.164242 1.297639
 H 4.937639 1.495199 -0.334819
 H 4.950110 -0.876699 0.726619
 H 6.744610 -0.912886 3.491948