16
charge = 0
 C 2.079171 0.066384 0.977579
 O 3.355940 -0.174826 0.446221
 C 3.307536 -0.626468 -0.890560
 C 4.708917 -0.878794 -1.404032
 C 5.582906 0.342051 -1.637562
 N 5.442277 1.337189 -0.732830
 O 6.360531 0.398089 -2.568238
 H 2.207382 0.397143 2.008245
 H 1.468153 -0.845610 0.969797
 H 1.548868 0.845249 0.413446
 H 2.792979 0.117168 -1.517525
 H 2.726213 -1.558122 -0.940700
 H 4.658074 -1.403869 -2.358491
 H 5.231917 -1.537098 -0.701856
 H 4.824624 1.225356 0.054921
 H 6.034690 2.144558 -0.817422