18
charge = 0
 C 1.199735 -0.124912 -0.574653
 O 2.562122 0.127906 -0.378013
 C 3.065733 1.081165 -1.275309
 C 4.531950 1.294802 -0.972998
 N 5.087589 2.277775 -1.877287
 C 6.526177 2.261993 -2.020490
 C 5.655889 1.759373 -3.105712
 H 0.891837 -0.868884 0.160628
 H 1.003293 -0.518320 -1.582227
 H 0.596369 0.783299 -0.436152
 H 2.525749 2.034615 -1.179430
 H 2.940070 0.736617 -2.314287
 H 5.057625 0.326790 -1.029911
 H 4.635703 1.663961 0.051451
 H 7.081941 1.521540 -1.449783
 H 7.004940 3.231577 -2.104330
 H 5.629437 0.682487 -3.258593
 H 5.488040 2.354916 -3.996294