15
charge = 0
 C 4.924070 0.896819 -0.007556
 O 3.598327 0.465019 -0.181701
 C 3.405690 -0.566685 -1.029795
 C 4.336689 -1.224989 -1.724107
 N 4.038748 -2.281293 -2.578214
 C 4.945647 -2.995196 -3.314526
 N 6.207277 -2.882108 -3.399245
 H 4.892580 1.723920 0.699291
 H 5.355110 1.243196 -0.954661
 H 5.551580 0.094249 0.398513
 H 2.353052 -0.822683 -1.094293
 H 5.383859 -0.968092 -1.658032
 H 3.074430 -2.550855 -2.668633
 H 4.458546 -3.772911 -3.905476
 H 6.578784 -2.134402 -2.817085