18
charge = 0
 C 3.068076 -2.970200 -0.845833
 O 4.046777 -2.853500 0.162270
 C 3.644835 -2.161027 1.328126
 C 2.979458 -3.062670 2.354788
 N 1.633496 -3.449844 1.958899
 C 4.912329 -1.539098 1.890074
 O 5.574955 -0.762498 0.927829
 H 3.551492 -3.442210 -1.702376
 H 2.699198 -1.981193 -1.150149
 H 2.223070 -3.578342 -0.515301
 H 2.956363 -1.349001 1.042484
 H 3.021968 -2.554873 3.332656
 H 3.586330 -3.968607 2.438885
 H 1.005758 -2.656561 2.013674
 H 1.267515 -4.156957 2.583396
 H 5.563357 -2.341439 2.270728
 H 4.664466 -0.882803 2.727471
 H 5.588848 -1.303276 0.129270