16
charge = 0
 C 2.060422 -1.077345 -0.601854
 O 3.202699 -0.337029 -0.266261
 C 3.030690 1.045242 -0.458481
 C 4.328815 1.733658 -0.114542
 N 5.408741 1.273938 -0.950976
 C 6.173902 2.100516 -1.693636
 O 6.074410 3.306244 -1.730218
 H 2.285321 -2.129351 -0.425871
 H 1.788857 -0.941541 -1.657570
 H 1.199916 -0.789346 0.017119
 H 2.225105 1.427202 0.186469
 H 2.756587 1.253274 -1.503557
 H 4.564387 1.555062 0.940173
 H 4.239166 2.810209 -0.265224
 H 5.559442 0.281379 -1.018222
 H 6.929153 1.548596 -2.284348