18
charge = 0
 C 4.032737 -0.400719 -0.643815
 O 3.221899 -1.145267 0.234885
 C 3.205006 -0.649372 1.536389
 C 2.085250 -1.354891 2.274833
 N 1.975443 -0.810489 3.613953
 O 4.453540 -0.773910 2.175463
 C 4.940213 -2.091658 2.307736
 H 3.939524 -0.856582 -1.629273
 H 5.083265 -0.414518 -0.336777
 H 3.698158 0.643093 -0.699201
 H 3.024209 0.433724 1.539402
 H 2.261675 -2.439858 2.223504
 H 1.160595 -1.158604 1.726702
 H 2.866236 -0.872319 4.091473
 H 1.293862 -1.319704 4.159818
 H 5.985993 -2.008484 2.603963
 H 4.877432 -2.643873 1.365416
 H 4.403773 -2.654068 3.081739