16
charge = 0
 C 5.007638 0.681420 -0.499436
 O 3.852698 -0.107055 -0.642444
 C 3.580084 -0.899242 0.487640
 C 4.532786 -2.040719 0.630541
 N 5.185478 -2.177945 1.707835
 O 5.994862 -3.286775 1.688472
 C 6.698633 -3.378509 2.909356
 H 5.112884 1.263273 -1.415050
 H 5.909064 0.073021 -0.357684
 H 4.917207 1.368138 0.353014
 H 2.567425 -1.286714 0.339452
 H 3.592338 -0.305285 1.411061
 H 4.652722 -2.741387 -0.198200
 H 7.315235 -4.273447 2.829258
 H 6.009862 -3.478508 3.752624
 H 7.336073 -2.503375 3.062641