13
charge = 0
 C 3.046777 0.359685 -1.182492
 O 2.416269 -0.317160 -0.112976
 C 3.186411 -0.909112 0.800892
 N 2.437428 -1.535038 1.737216
 C 4.549220 -0.914660 0.780921
 C 5.248461 -1.542337 1.824591
 N 5.780895 -2.066902 2.707719
 H 2.243348 0.772882 -1.788247
 H 3.641148 -0.331993 -1.785223
 H 3.682382 1.168636 -0.812699
 H 1.480819 -1.243086 1.831396
 H 2.905971 -1.871847 2.561283
 H 5.107869 -0.458279 -0.019961