15
charge = 0
 C 1.129830 -0.025700 -1.854610
 O 1.988171 0.143469 -0.735573
 C 3.035878 0.939761 -0.914958
 N 3.281076 1.528213 -2.008044
 N 4.461393 2.312551 -1.909041
 C 5.160592 2.356977 -3.190765
 C 4.358871 3.507271 -2.743569
 H 0.340638 -0.698718 -1.525520
 H 1.675711 -0.457000 -2.696178
 H 0.711039 0.933240 -2.166505
 H 3.654034 1.029513 -0.023056
 H 4.745562 1.742180 -3.981124
 H 6.241644 2.371099 -3.115840
 H 3.404936 3.665547 -3.233294
 H 4.835037 4.389106 -2.331134