15
charge = 0
 C 3.218192 1.606387 -0.107102
 O 2.002869 0.997111 -0.525598
 C 2.106719 -0.190204 -1.101222
 N 3.216744 -0.780508 -1.284853
 N 3.035508 -2.008249 -1.908319
 C 4.122446 -2.631744 -2.110577
 C 4.131786 -3.961988 -2.766158
 H 2.934400 2.558984 0.335315
 H 3.882783 1.759877 -0.959184
 H 3.729079 0.978368 0.624931
 H 1.143702 -0.602933 -1.398398
 H 5.072473 -2.186845 -1.798869
 H 3.117946 -4.271908 -3.017509
 H 4.585144 -4.711076 -2.109137
 H 4.737400 -3.936974 -3.677721