15
charge = 0
 C 1.208652 1.205111 -0.271576
 O 2.559320 0.800287 -0.261699
 C 3.271244 1.077984 0.858552
 N 2.896174 1.658813 1.919384
 N 4.545557 0.612950 0.678782
 C 5.543506 0.726744 1.623334
 C 6.788321 0.282660 1.470726
 H 0.809425 0.900916 -1.237132
 H 1.118206 2.290866 -0.170135
 H 0.640487 0.713918 0.524197
 H 1.925352 1.940586 1.891585
 H 4.739007 0.166781 -0.201468
 H 5.208705 1.225137 2.524970
 H 7.121427 -0.216118 0.567044
 H 7.507926 0.414766 2.265527