14
charge = 0
 C 1.975276 0.848817 0.374820
 O 3.314041 0.377425 0.242876
 C 3.496672 -0.577080 -0.670457
 O 2.618986 -1.025245 -1.364730
 C 4.912056 -1.017730 -0.729238
 C 5.135078 -2.487443 -0.759996
 N 5.341787 -1.689159 -1.946472
 H 2.006723 1.619392 1.141561
 H 1.311324 0.037425 0.675828
 H 1.620714 1.262908 -0.569763
 H 5.636949 -0.369074 -0.253079
 H 4.252567 -3.116098 -0.704628
 H 6.032518 -2.882344 -0.297274
 H 4.529910 -1.777695 -2.553949