14
charge = 0
 C 1.132186 -0.278170 0.104798
 O 2.545413 -0.155541 0.078085
 C 3.203803 -0.930626 0.967025
 O 2.627982 -1.674510 1.729375
 C 4.638898 -0.737045 0.864929
 C 5.447415 -1.436361 1.682897
 N 6.793045 -1.384979 1.728079
 H 0.758555 0.401255 -0.659230
 H 0.735424 -0.002301 1.083549
 H 0.825529 -1.302136 -0.116412
 H 5.015989 -0.034269 0.132068
 H 4.983181 -2.119732 2.388211
 H 7.311949 -0.783229 1.115354
 H 7.306929 -1.948066 2.376572