14
charge = 0
 C 1.106294 -0.151615 0.548777
 O 1.529685 0.575366 1.695173
 N 2.533813 1.439467 1.382074
 C 2.473264 2.896027 1.368322
 C 4.012147 2.858328 1.452929
 C 3.880076 1.335956 1.631562
 O 4.602721 0.419719 1.891148
 H 1.923411 -0.758971 0.152961
 H 0.730739 0.522219 -0.226895
 H 0.300199 -0.798250 0.894421
 H 1.987502 3.316340 2.252611
 H 2.040047 3.319674 0.460286
 H 4.438206 3.351379 2.325577
 H 4.542886 3.158961 0.551075