14
charge = 0
 C 3.152377 -0.816019 0.431428
 O 2.124855 -0.295824 -0.404250
 N 2.649871 0.440843 -1.422500
 C 2.870863 1.780978 -1.362836
 C 3.364733 2.153978 -2.589714
 C 3.432854 0.992498 -3.395024
 C 2.979020 -0.063206 -2.641503
 H 2.636188 -1.381813 1.206200
 H 3.732915 -0.008167 0.885042
 H 3.816456 -1.477101 -0.131958
 H 2.644884 2.339903 -0.469930
 H 3.636192 3.157700 -2.876459
 H 3.766688 0.933014 -4.418933
 H 2.847196 -1.109574 -2.861684