15
charge = 0
 C 2.524615 1.186048 1.791572
 O 2.357696 1.294794 0.393308
 N 3.083658 2.388692 -0.089960
 C 4.236999 2.018256 -0.910068
 C 4.293400 3.220852 -1.860170
 N 2.924496 3.745037 -1.900583
 C 2.327674 3.225038 -0.912197
 H 1.938694 0.316570 2.092003
 H 2.153799 2.077044 2.306394
 H 3.574493 1.026000 2.057099
 H 4.014005 1.085760 -1.442474
 H 5.136337 1.887058 -0.308417
 H 4.641785 2.969027 -2.862724
 H 4.954732 3.999894 -1.465065
 H 1.295427 3.417610 -0.639439