15
charge = 0
 C 5.200670 -0.814453 -0.266990
 O 5.557029 0.119951 0.728894
 N 4.419958 0.611059 1.324969
 C 4.678499 1.421623 2.264549
 C 3.577222 2.084550 2.982827
 C 2.718549 3.055506 2.253041
 N 2.201541 1.759789 2.653992
 H 6.140009 -1.160522 -0.697731
 H 4.588716 -0.346988 -1.043690
 H 4.658168 -1.660858 0.163470
 H 5.708784 1.642431 2.548082
 H 3.766133 2.263259 4.037618
 H 2.953609 3.222089 1.206542
 H 2.307236 3.907072 2.784759
 H 2.206878 1.122393 1.862070