14
charge = 0
 C 1.188368 0.344511 0.599046
 O 2.553415 0.182245 0.270185
 N 3.068604 -0.875488 0.966599
 C 4.303572 -1.049490 0.691195
 C 5.039517 -2.091613 1.300254
 C 5.724929 -2.958174 1.780729
 C 6.527456 -4.007530 2.372371
 H 0.843342 1.196903 0.014624
 H 1.066090 0.550972 1.665423
 H 0.614289 -0.546367 0.331625
 H 4.807285 -0.392763 -0.020283
 H 7.572102 -3.922946 2.063642
 H 6.163738 -4.993174 2.070173
 H 6.490992 -3.956804 3.463686