16
charge = 0
 C 4.176938 1.505281 -0.087474
 O 4.915649 0.382819 0.342617
 N 4.079323 -0.486407 1.006827
 C 4.694138 -1.512832 1.423061
 C 3.951786 -2.577334 2.161309
 C 3.982606 -3.886766 1.432906
 C 4.528248 -4.999863 1.900932
 H 4.889056 2.149658 -0.602866
 H 3.742973 2.040313 0.762021
 H 3.379538 1.211713 -0.776100
 H 5.762616 -1.637384 1.235066
 H 2.920122 -2.237618 2.292879
 H 4.393322 -2.705875 3.155769
 H 3.522307 -3.888770 0.447086
 H 4.998765 -5.032964 2.879047
 H 4.520124 -5.919572 1.327719