14
charge = 0
 C 1.694775 0.214440 0.767170
 O 3.007613 -0.018909 0.302283
 N 3.274860 0.820657 -0.751972
 C 4.434302 0.637820 -1.223993
 C 4.895001 1.487712 -2.366683
 C 5.358612 0.693375 -3.494891
 C 5.743113 0.024371 -4.413554
 H 1.548906 -0.474693 1.598672
 H 0.958882 0.010248 -0.015335
 H 1.578935 1.244334 1.115859
 H 5.102384 -0.121992 -0.816839
 H 5.714854 2.134782 -2.030084
 H 4.072896 2.140944 -2.670385
 H 6.080266 -0.565090 -5.233049