17
charge = 0
 C 2.371107 -0.573826 -2.426300
 O 3.239434 -0.107267 -1.418511
 N 3.718702 -1.185627 -0.702027
 C 4.532776 -0.832548 0.212170
 C 4.950813 0.572815 0.483153
 C 5.076798 -1.943311 1.059754
 N 6.529890 -1.983398 0.973939
 H 2.017302 0.313395 -2.951906
 H 1.521422 -1.111076 -1.995249
 H 2.895523 -1.231676 -3.125634
 H 4.120870 1.133256 0.924371
 H 5.216129 1.083698 -0.443980
 H 5.802587 0.586342 1.161589
 H 4.569903 -2.871814 0.769562
 H 4.813484 -1.735845 2.103911
 H 6.816913 -2.324298 0.064671
 H 6.911655 -2.613620 1.666880