16
charge = 0
 C 3.026416 -1.346504 -1.606662
 O 3.864243 -0.731143 -0.652120
 N 3.316542 0.476608 -0.280806
 C 4.017074 1.077425 0.598018
 C 5.277801 0.551104 1.195675
 C 3.491427 2.410626 1.037796
 O 3.212608 2.442697 2.424378
 H 3.511376 -2.287019 -1.868078
 H 2.924685 -0.722234 -2.498599
 H 2.035074 -1.545657 -1.189833
 H 5.177231 -0.504940 1.450584
 H 5.539982 1.119163 2.087687
 H 6.095945 0.624930 0.472590
 H 2.614179 2.663531 0.433422
 H 4.253631 3.178764 0.875324
 H 2.502587 1.817638 2.595245