16
charge = 0
 C 1.675391 1.427709 0.057060
 O 2.987504 0.970373 -0.166508
 N 3.452048 0.381089 1.002481
 C 4.639870 -0.061478 0.885336
 C 5.525349 -0.012949 -0.306417
 O 5.219231 -0.657832 1.939111
 C 4.448384 -0.750817 3.125089
 H 1.353777 1.879443 -0.881864
 H 1.647834 2.176249 0.855272
 H 1.006960 0.600702 0.316783
 H 5.023945 0.475535 -1.137066
 H 5.809675 -1.027931 -0.592659
 H 6.441879 0.527433 -0.059587
 H 5.082793 -1.257026 3.850497
 H 3.534356 -1.323265 2.951099
 H 4.170193 0.241653 3.487072