17
charge = 0
 C 1.432128 0.699151 0.502471
 O 2.791057 0.389460 0.344471
 N 3.143970 0.615691 -0.991574
 C 4.380957 0.338659 -1.162084
 N 4.981783 0.470570 -2.366947
 C 4.202713 0.935546 -3.483868
 C 6.370051 0.156234 -2.550594
 H 1.200093 0.510605 1.551691
 H 0.802115 0.066087 -0.132157
 H 1.232171 1.750004 0.265529
 H 5.004692 -0.016220 -0.341882
 H 3.360438 0.264557 -3.681703
 H 4.837984 0.983088 -4.368155
 H 3.786697 1.928781 -3.285976
 H 6.797382 -0.177593 -1.604632
 H 6.940729 1.029286 -2.888520
 H 6.509140 -0.646107 -3.284783