14
charge = 0
 C 2.575332 1.206774 0.590129
 O 3.686867 0.470149 0.133660
 N 3.254287 -0.472534 -0.783214
 C 4.225900 -1.155406 -1.215933
 O 4.091129 -2.141017 -2.117664
 C 2.845554 -2.435935 -2.607348
 C 2.695112 -3.404866 -3.493205
 H 2.973458 1.928279 1.303648
 H 1.849155 0.557307 1.087991
 H 2.086095 1.734135 -0.234216
 H 5.257989 -1.016412 -0.905957
 H 2.040607 -1.827566 -2.216368
 H 3.536674 -3.984244 -3.851525
 H 1.708240 -3.628265 -3.872688