14
charge = 0
 C 2.877907 -3.368729 -2.311622
 O 3.132549 -1.980034 -2.438118
 N 3.564271 -1.463358 -1.232652
 C 4.803732 -0.875370 -1.140520
 O 5.034699 -0.121434 -0.217954
 C 5.799610 -1.269183 -2.165696
 C 7.029178 -0.775176 -2.109742
 H 2.537346 -3.696372 -3.294100
 H 2.096186 -3.560047 -1.570146
 H 3.785074 -3.911215 -2.029978
 H 2.829294 -0.992969 -0.718826
 H 5.490494 -1.946795 -2.951257
 H 7.301926 -0.088306 -1.315893
 H 7.780533 -1.039502 -2.844003