16
charge = 0
 N 1.641079 -0.403697 -0.800109
 C 2.875415 -0.067354 -0.171588
 C 3.688588 -1.162870 0.440681
 C 4.195300 -0.452093 -0.778023
 C 5.117423 0.710031 -0.526641
 O 4.516420 1.453915 0.523558
 C 3.116440 1.307264 0.419948
 H 0.890528 -0.472319 -0.123769
 H 1.376235 0.289603 -1.489900
 H 3.312179 -2.166707 0.292636
 H 4.181379 -0.973837 1.388239
 H 4.228031 -0.975635 -1.724544
 H 5.214156 1.321859 -1.436048
 H 6.119227 0.430369 -0.190325
 H 2.680189 2.066588 -0.250888
 H 2.693781 1.447292 1.419684