16
charge = 0
 N 0.758017 0.087724 0.075265
 C 2.185864 0.073713 0.187728
 C 3.116691 -0.874588 -0.529372
 C 2.545724 -1.604069 -1.715404
 O 1.880600 -0.627249 -2.504340
 C 2.496854 0.633977 -2.290026
 C 3.069656 0.589996 -0.898898
 H 0.347477 -0.582268 0.713773
 H 0.470104 -0.167161 -0.862407
 H 2.516465 0.345507 1.185420
 H 3.965704 -1.306983 -0.013163
 H 1.800819 -2.363204 -1.455636
 H 3.347792 -2.092315 -2.286557
 H 1.726716 1.397152 -2.433172
 H 3.298642 0.810660 -3.020793
 H 3.880877 1.266488 -0.659018