14
charge = 0
 N 0.855032 0.002518 -0.156789
 C 2.246995 0.090387 0.119904
 C 3.285957 -0.818979 -0.513631
 O 2.838510 -1.579110 -1.602627
 C 2.924996 -0.721885 -2.713736
 O 2.675079 0.583516 -2.242732
 C 3.187322 0.607206 -0.936063
 H 0.515701 -0.943494 -0.038709
 H 0.678654 0.271672 -1.116965
 H 2.500442 0.404670 1.130211
 H 4.109240 -1.241978 0.049773
 H 2.159694 -0.993859 -3.442621
 H 3.930186 -0.774820 -3.160096
 H 3.925072 1.375356 -0.739100