13
charge = 0
 N 0.893048 -0.161268 -0.313607
 C 2.153392 -0.087279 0.330959
 C 3.255998 0.688564 -0.303209
 O 3.109862 1.048720 -1.649297
 N 3.077572 -0.091068 -2.433332
 C 3.247706 -1.111039 -1.689746
 C 3.360049 -0.815987 -0.257038
 H 0.422672 0.732659 -0.336475
 H 0.286518 -0.851775 0.104159
 H 2.193302 -0.050847 1.419930
 H 3.863108 1.386535 0.259368
 H 3.290880 -2.088820 -2.150391
 H 4.018093 -1.384506 0.386878