16
charge = 0
 N 0.945349 0.508106 0.081007
 C 2.314748 0.085762 0.117867
 C 2.880586 -0.868859 -0.905371
 C 3.248624 0.589079 -0.930927
 C 2.851987 -0.029076 1.504053
 C 2.314259 0.739887 2.619055
 O 1.998847 -0.640651 2.460629
 H 0.650637 0.710119 -0.864384
 H 0.348339 -0.222642 0.450372
 H 2.202171 -1.230785 -1.668537
 H 3.635085 -1.582661 -0.595205
 H 4.251940 0.873744 -0.636633
 H 2.826352 1.209089 -1.713382
 H 3.889767 -0.358055 1.559327
 H 1.491439 1.421316 2.428395
 H 2.953881 0.969909 3.467733