18
charge = 0
 N 0.903468 0.678113 -0.523167
 C 2.254040 0.305277 -0.214309
 C 2.964158 -0.896205 -0.773329
 C 3.320464 0.492410 -1.240121
 C 4.618564 1.161771 -0.884001
 C 4.506292 2.677836 -0.943345
 O 3.558392 3.202558 -0.041865
 H 0.242423 0.130226 0.014980
 H 0.699100 0.517094 -1.501764
 H 2.533241 0.581256 0.797911
 H 2.419517 -1.528664 -1.465129
 H 3.671275 -1.421086 -0.140321
 H 2.950991 0.740450 -2.234499
 H 5.413293 0.838888 -1.566986
 H 4.921906 0.862299 0.125051
 H 4.276567 2.986780 -1.974796
 H 5.462410 3.134812 -0.676727
 H 2.700519 2.812485 -0.240695