15
charge = 0
 N 1.315490 -0.084742 0.356349
 C 2.694832 0.004749 -0.018531
 C 3.257102 -0.563158 -1.286447
 C 3.092679 0.925271 -1.140762
 C 4.253796 1.812854 -0.987327
 N 5.435402 1.356978 -1.016730
 O 6.373797 2.351881 -0.793475
 H 1.118916 -0.992004 0.763406
 H 0.716080 0.011568 -0.454410
 H 3.364671 0.015037 0.835010
 H 2.567581 -1.065402 -1.955187
 H 4.269525 -0.946351 -1.286500
 H 2.258665 1.378174 -1.669184
 H 4.081369 2.877918 -0.818402
 H 7.208396 1.880847 -0.862719