15
charge = 0
 N 1.033484 0.088080 0.010048
 C 2.455431 -0.037240 0.098375
 C 3.277031 -0.877148 -0.827544
 C 3.307482 0.631375 -0.938976
 C 4.512966 1.441751 -0.603643
 N 5.289644 1.000773 0.421658
 O 4.791334 2.443267 -1.230886
 H 0.573322 -0.782136 0.246694
 H 0.742213 0.350700 -0.921953
 H 2.816885 0.043033 1.120186
 H 2.762201 -1.407864 -1.619399
 H 4.162875 -1.376679 -0.451959
 H 2.780778 1.062557 -1.781924
 H 5.040453 0.221071 1.000239
 H 6.071611 1.571651 0.689884