16
charge = 0
 N 0.983172 0.034834 -0.477303
 C 2.381854 -0.074213 -0.177780
 C 3.223721 -0.881805 -1.133179
 C 3.283098 0.612805 -1.163399
 O 2.648333 1.283230 -2.205098
 C 4.504407 1.352117 -0.715335
 O 4.198147 2.667550 -0.318221
 H 0.528965 0.704728 0.129853
 H 0.501734 -0.850259 -0.389027
 H 2.688103 -0.073073 0.866182
 H 2.710505 -1.355014 -1.962295
 H 4.056836 -1.441951 -0.725223
 H 1.703603 1.079046 -2.091153
 H 5.244387 1.349104 -1.529214
 H 4.951558 0.846164 0.143943
 H 3.644765 3.031249 -1.018241