14
charge = 0
 N 0.747474 -0.211868 -0.606084
 C 2.101909 -0.234023 -0.145926
 C 3.261796 -0.834655 -0.916132
 C 3.106223 0.645568 -0.774968
 O 3.971533 1.333676 0.101324
 C 4.946269 2.042472 -0.473416
 O 5.135468 2.159632 -1.647217
 H 0.342518 -1.139670 -0.579609
 H 0.686695 0.117987 -1.560590
 H 2.189473 -0.315355 0.932937
 H 3.076791 -1.257872 -1.896486
 H 4.048929 -1.310347 -0.343823
 H 2.838725 1.221871 -1.652874
 H 5.550208 2.517875 0.312966