15
charge = 0
 N 0.892497 0.018387 0.248947
 C 2.295632 -0.116491 -0.002840
 C 2.887660 -0.932393 -1.132674
 C 2.904381 0.563949 -1.165139
 O 4.098247 1.243320 -0.917427
 N 4.851844 1.308502 -2.070548
 C 5.935627 1.931807 -1.884714
 H 0.508270 -0.846679 0.609203
 H 0.388274 0.241214 -0.599449
 H 2.899770 -0.084879 0.898141
 H 2.213818 -1.436749 -1.815542
 H 3.831190 -1.433435 -0.954046
 H 2.250477 1.069654 -1.871259
 H 6.588176 2.033855 -2.743287
 H 6.216547 2.352917 -0.920265