16
charge = 0
 N 1.547058 0.201509 0.962859
 C 2.538040 -0.126606 -0.041581
 C 2.466622 -1.531909 -0.683083
 C 3.071840 -1.350786 -2.046105
 O 4.289706 -0.611430 -2.036813
 C 3.085701 0.073716 -2.372115
 C 2.491330 0.846348 -1.230012
 H 1.662305 -0.374887 1.787026
 H 0.610895 0.035829 0.610973
 H 3.517130 -0.026145 0.431013
 H 1.420796 -1.842402 -0.797844
 H 2.973412 -2.291267 -0.081291
 H 3.006278 -2.126107 -2.804086
 H 3.031927 0.442298 -3.392154
 H 1.451847 1.098312 -1.473141
 H 3.011723 1.781338 -1.013245