14
charge = 0
 N 1.040577 -0.060346 -0.041154
 C 2.487923 0.093210 -0.045985
 C 3.003698 1.397822 0.519442
 C 3.714430 1.222255 1.632839
 C 3.870762 -0.227379 1.914151
 O 4.544002 -0.929731 0.858992
 C 3.131160 -0.937382 0.866473
 H 0.617179 0.487367 -0.779178
 H 0.657961 0.275718 0.835299
 H 2.839211 -0.058940 -1.072285
 H 2.803274 2.352431 0.045144
 H 4.163980 2.003912 2.232160
 H 4.040771 -0.619276 2.910797
 H 2.644781 -1.898461 1.004406