16
charge = 0
 N 0.991970 -0.001534 0.288924
 C 2.412703 -0.107578 0.051560
 C 2.963320 -1.308193 -0.689632
 C 3.988788 -0.966106 -1.464456
 C 4.257936 0.512877 -1.378988
 C 2.936563 1.052325 -0.820906
 O 2.032602 1.348864 -1.868976
 H 0.615961 -0.854196 0.681379
 H 0.510635 0.197599 -0.579207
 H 2.921807 -0.050843 1.025582
 H 2.590111 -2.316419 -0.544723
 H 4.589744 -1.649714 -2.053349
 H 4.509092 0.983701 -2.333115
 H 5.089620 0.716358 -0.692485
 H 3.041980 1.977388 -0.253504
 H 2.053357 0.606682 -2.483093