13
charge = 0
 N 0.994812 -0.151636 -0.063578
 C 2.341050 0.085449 -0.057200
 C 3.120414 1.188213 -0.055573
 C 4.487060 0.711631 -0.047791
 C 4.411687 -0.636632 -0.045398
 N 5.318570 -1.659435 -0.038901
 O 3.109377 -1.041209 -0.051043
 H 0.348618 0.609643 -0.067197
 H 0.651520 -1.090450 -0.062159
 H 2.787191 2.213022 -0.059372
 H 5.385282 1.307005 -0.044579
 H 6.298015 -1.465056 -0.033298
 H 5.003625 -2.608135 -0.037529