18
charge = 0
 N 1.084697 0.125353 0.058860
 C 2.528631 -0.004755 -0.059833
 C 3.031528 -1.409894 -0.414968
 C 2.676041 -1.769402 -1.851675
 C 3.122105 -0.662653 -2.789658
 O 2.586688 0.587768 -2.411827
 C 3.015285 0.969233 -1.121402
 H 0.695818 -0.623170 0.618999
 H 0.657397 0.073011 -0.858229
 H 2.972255 0.297912 0.896168
 H 2.620019 -2.143250 0.286100
 H 4.121692 -1.436290 -0.292990
 H 1.594066 -1.905272 -1.951393
 H 3.142695 -2.714514 -2.145218
 H 2.786197 -0.845179 -3.812587
 H 4.223183 -0.601698 -2.800934
 H 2.603681 1.963253 -0.938676
 H 4.114214 1.029458 -1.095247