18
charge = 0
 N 0.879436 -0.185966 0.038729
 C 2.313857 -0.077363 0.037706
 C 3.067277 1.059075 0.780190
 C 4.104878 0.014079 1.241494
 C 5.350958 -0.006294 0.382141
 O 6.171025 -1.131388 0.617166
 C 3.086854 -1.092096 0.896165
 H 0.453129 0.524219 -0.543467
 H 0.510546 -0.073128 0.975719
 H 2.649195 -0.128725 -1.001940
 H 2.473488 1.436340 1.617081
 H 3.428371 1.909812 0.195010
 H 4.398808 0.075091 2.294858
 H 5.912057 0.928766 0.528327
 H 5.081869 -0.056374 -0.677135
 H 6.430515 -1.125542 1.542232
 H 2.495430 -1.381956 1.769111
 H 3.467196 -1.994360 0.415112