12
charge = 0
 N 1.074301 -0.195690 -0.150258
 C 2.430458 0.027221 0.007133
 C 3.213142 1.125432 0.101046
 C 4.574601 0.650858 0.103298
 C 4.482584 -0.693682 0.030083
 O 5.352008 -1.713849 0.022505
 O 3.199195 -1.097771 -0.039124
 H 0.542930 0.658277 -0.081160
 H 0.708201 -0.893062 0.484565
 H 2.879370 2.148544 0.164842
 H 5.476580 1.238244 0.163004
 H 6.235850 -1.358521 0.146156