15
charge = 0
 N 0.986068 0.200398 -0.084833
 C 2.421219 0.069791 -0.029130
 C 3.133437 1.232808 0.648165
 C 4.444563 0.620475 1.145646
 N 4.075027 -0.758859 1.377627
 C 2.950659 -1.152022 0.730180
 O 2.455453 -2.256753 0.739559
 H 0.615718 0.283157 0.856275
 H 0.593353 -0.655452 -0.462983
 H 2.791299 -0.037821 -1.058002
 H 2.535900 1.564415 1.503362
 H 3.286207 2.089924 -0.006585
 H 4.806842 1.093921 2.060716
 H 5.234768 0.702950 0.388634
 H 4.665274 -1.425921 1.845979