13
charge = 0
 N 1.026163 -0.014657 -0.096066
 C 2.375971 0.081275 -0.101092
 C 3.093091 1.215864 -0.092435
 C 4.527164 1.102879 -0.100063
 N 5.209028 0.024813 -0.114158
 O 4.510299 -1.172440 -0.123241
 C 3.089542 -1.233255 -0.118130
 H 0.448831 0.805420 -0.084969
 H 0.572097 -0.908219 -0.103403
 H 2.629233 2.194058 -0.080136
 H 5.141362 1.997882 -0.093622
 H 2.782180 -1.816948 0.762943
 H 2.774841 -1.797973 -1.008939