14
charge = 0
 N 0.925813 -0.101502 -0.098334
 C 2.379612 -0.136425 -0.045473
 C 3.090088 -1.345664 -0.600815
 C 3.938078 -0.937342 -1.533574
 O 3.944434 0.414784 -1.737233
 C 2.991809 0.958647 -0.901218
 C 2.694337 2.246901 -0.931552
 H 0.535487 -0.817015 0.503276
 H 0.609864 -0.291938 -1.042635
 H 2.656498 0.020007 1.004818
 H 2.941196 -2.363668 -0.274893
 H 4.626134 -1.486503 -2.159874
 H 3.191426 2.923043 -1.614219
 H 1.928833 2.626566 -0.269874