16
charge = 0
 N 1.038423 -0.105086 -0.119305
 C 2.471517 -0.009586 -0.003511
 C 3.085764 1.097956 0.863957
 C 4.449796 0.514032 1.169269
 O 4.242287 -0.896682 1.255059
 C 3.088705 -1.237249 0.620745
 C 2.610432 -2.474221 0.605010
 H 0.649547 0.724021 -0.548695
 H 0.613066 -0.221414 0.792715
 H 2.877461 0.088496 -1.019798
 H 2.499408 1.207305 1.781738
 H 3.134162 2.065495 0.362180
 H 4.880533 0.846869 2.114496
 H 5.168071 0.722312 0.366995
 H 3.129530 -3.284729 1.098812
 H 1.688316 -2.670526 0.076933