13
charge = 0
 N 0.874224 0.187759 -0.000337
 C 2.259588 0.228255 -0.026674
 C 3.100575 1.296747 -0.024218
 N 2.735136 2.638304 -0.059218
 C 4.426417 0.764882 -0.071625
 C 4.287052 -0.581656 -0.098361
 O 2.990843 -0.936565 -0.084110
 H 0.458753 -0.146701 -0.860897
 H 0.501113 -0.342459 0.776489
 H 1.753421 2.758410 0.149044
 H 3.299706 3.223581 0.538104
 H 5.353421 1.316582 -0.090377
 H 5.003472 -1.386439 -0.128120