12
charge = 0
 N 0.957075 0.144243 -0.059841
 C 2.398278 0.031788 -0.006275
 C 3.062847 -1.179112 -0.593182
 C 3.937217 -0.768488 -1.498916
 O 3.998107 0.599035 -1.650594
 C 3.074384 1.161069 -0.799186
 O 2.898371 2.331489 -0.747551
 H 0.525912 -0.486142 0.602953
 H 0.610622 -0.092274 -0.981595
 H 2.700472 0.177973 1.038310
 H 2.864698 -2.203977 -0.318819
 H 4.609307 -1.317704 -2.141593