16
charge = 0
 N 0.900658 -0.124735 -0.031401
 C 2.333538 -0.056437 -0.053805
 C 3.153177 1.011091 0.726640
 C 4.204208 -0.070961 1.016511
 O 5.166589 -0.203349 -0.012040
 C 3.114380 -1.124948 0.738158
 O 3.489996 -2.326879 0.155859
 H 0.479396 0.595643 -0.603215
 H 0.540259 -0.022179 0.909406
 H 2.669341 -0.078645 -1.093453
 H 2.639726 1.321060 1.641049
 H 3.490421 1.897767 0.186114
 H 4.681633 -0.079854 2.001408
 H 5.769404 0.542341 0.025768
 H 2.573650 -1.356596 1.661834
 H 4.205613 -2.124109 -0.457362