14
charge = 0
 N 1.054567 0.044612 -0.131261
 C 2.478452 0.156230 0.008000
 C 3.098410 1.277837 0.841798
 C 4.459474 0.684535 1.162310
 O 4.233529 -0.724791 1.283347
 C 3.081009 -1.075168 0.672376
 O 2.647559 -2.184142 0.703943
 H 0.631851 0.925787 -0.386935
 H 0.619729 -0.300158 0.714122
 H 2.927083 0.191230 -0.996815
 H 2.515212 1.422220 1.756460
 H 3.164861 2.231372 0.316477
 H 4.892053 1.031223 2.100318
 H 5.181001 0.855604 0.356870