18
charge = 0
 N 0.985968 0.140680 0.275776
 C 2.430824 0.038721 0.105212
 C 2.937761 -1.346841 -0.317379
 C 2.597244 -1.636750 -1.767272
 O 3.108998 -0.648417 -2.632007
 C 2.578878 0.625289 -2.338312
 C 2.908244 1.063134 -0.921709
 H 0.664908 -0.524314 0.969322
 H 0.499159 -0.080539 -0.584267
 H 2.872915 0.291377 1.074381
 H 2.508763 -2.120623 0.328378
 H 4.026059 -1.388987 -0.199029
 H 1.504522 -1.713940 -1.898299
 H 3.029916 -2.585536 -2.090816
 H 1.488193 0.618617 -2.501987
 H 3.009150 1.313879 -3.068235
 H 2.451289 2.033937 -0.712305
 H 3.993727 1.174823 -0.839751