18
charge = 0
 N 0.787792 -0.105281 0.124671
 C 2.187589 -0.073243 -0.248568
 C 3.107907 -0.088053 0.949423
 C 2.911357 1.103131 1.876514
 O 1.657428 1.103834 2.511589
 C 2.642638 -0.726492 -1.522635
 C 2.553838 0.774734 -1.419929
 H 0.518830 -1.039183 0.416057
 H 0.194421 0.153994 -0.652891
 H 4.144261 -0.104369 0.597460
 H 2.950945 -1.011920 1.520090
 H 3.065630 2.031881 1.303726
 H 3.670072 1.082237 2.664526
 H 1.013513 0.883009 1.817259
 H 1.893744 -1.230829 -2.122429
 H 3.625929 -1.181306 -1.552029
 H 1.756700 1.272699 -1.960551
 H 3.475019 1.342756 -1.371982