14
charge = 0
 N 0.950050 -0.020722 -0.138307
 C 2.403113 0.048315 0.035739
 C 2.877999 1.255705 0.791037
 C 3.490014 1.179037 1.967726
 O 3.822448 0.019089 2.591450
 C 3.492724 -1.124397 1.933158
 C 2.872257 -1.173727 0.760515
 H 0.625525 0.735473 -0.730427
 H 0.497086 0.086459 0.762639
 H 2.818279 0.052878 -0.981016
 H 2.678426 2.241662 0.385772
 H 3.799281 2.036774 2.550929
 H 3.812820 -1.997016 2.487242
 H 2.654580 -2.143040 0.329453