17
charge = 0
 N 1.044331 -0.236830 0.079054
 C 2.466676 -0.038929 0.079136
 C 3.211150 1.078672 0.843482
 N 4.263132 0.090275 1.136667
 C 3.305817 -1.005425 0.926848
 C 3.788333 -2.270303 0.262254
 O 2.698512 -3.127969 -0.001539
 H 0.568418 0.413861 -0.532299
 H 0.653737 -0.137830 1.008064
 H 2.822143 -0.067901 -0.955086
 H 2.635642 1.394493 1.726494
 H 3.542266 1.963503 0.293092
 H 4.673448 0.143743 2.059666
 H 2.742734 -1.271095 1.837533
 H 4.479594 -2.819890 0.908440
 H 4.331429 -2.007328 -0.656795
 H 1.960646 -2.583967 -0.301910