15
charge = 0
 N 1.005795 0.040617 0.172092
 C 2.429270 0.091026 0.024848
 C 3.287892 1.175598 0.751291
 N 4.068465 0.091065 1.322431
 C 3.217774 -0.973291 0.819413
 C 5.142098 0.044594 2.123473
 O 5.633524 -0.973563 2.560171
 H 0.542539 0.760867 -0.365951
 H 0.723966 0.138339 1.139797
 H 2.668333 0.054639 -1.039132
 H 2.719121 1.748711 1.493135
 H 3.850251 1.863657 0.113925
 H 2.627347 -1.461389 1.602207
 H 3.740624 -1.739071 0.243466
 H 5.546990 1.053100 2.341323