15
charge = 0
 N 0.915780 -0.069257 -0.010811
 C 2.354792 -0.055311 0.093591
 C 2.994610 1.084769 0.914497
 N 4.245302 0.502806 1.330877
 C 4.256573 -0.859962 1.332638
 O 5.156824 -1.558939 1.734133
 C 2.925167 -1.304170 0.755344
 H 0.570960 0.751344 -0.492893
 H 0.484101 -0.091593 0.905801
 H 2.756915 0.006335 -0.923024
 H 2.350591 1.339111 1.768982
 H 3.144173 1.991110 0.321667
 H 4.985301 1.013920 1.782730
 H 2.290742 -1.627137 1.589527
 H 3.044779 -2.154735 0.086640