13
charge = 0
 N 0.888560 0.067802 0.046533
 C 2.263345 0.055145 0.053153
 C 3.109785 1.134465 0.056988
 N 4.411682 0.633291 0.063233
 C 4.368558 -0.717679 0.063274
 O 5.471728 -1.498974 0.068600
 C 3.062261 -1.127243 0.057159
 H 0.379196 0.927412 0.044869
 H 0.374111 -0.788211 0.045185
 H 2.918308 2.193716 0.055871
 H 5.239335 1.198543 0.066989
 H 6.264275 -0.957553 0.072607
 H 2.723846 -2.150894 0.055730