14
charge = 0
 N 0.828933 -0.041518 0.163053
 C 2.261241 -0.099237 -0.004260
 C 3.040969 0.940386 0.834491
 O 3.857480 -0.069640 1.431227
 C 3.106650 -1.117256 0.818346
 C 2.593619 -0.097937 -1.419021
 C 2.883250 -0.119270 -2.583428
 H 0.572507 -0.213730 1.127455
 H 0.364822 -0.726349 -0.419675
 H 2.401401 1.446152 1.567122
 H 3.624360 1.676313 0.277410
 H 2.505147 -1.677281 1.545852
 H 3.738054 -1.803571 0.248688
 H 3.140057 -0.129235 -3.616360