14
charge = 0
 N 0.857935 0.092015 0.116617
 C 2.286821 0.102651 0.096617
 C 3.132134 1.070443 0.944483
 O 3.936176 -0.009300 1.435516
 C 3.006775 -0.983959 0.927454
 C 3.625560 -2.097187 0.241127
 C 4.121305 -3.020367 -0.344508
 H 0.460975 0.729135 -0.559347
 H 0.487759 0.322676 1.029938
 H 2.629612 0.074447 -0.938112
 H 2.557723 1.548994 1.749949
 H 3.729317 1.824701 0.425203
 H 2.358459 -1.360785 1.731455
 H 4.566430 -3.838466 -0.859792