16
charge = 0
 N 1.098518 -0.146241 -0.373631
 C 2.513167 -0.096544 -0.138956
 C 3.322978 -0.872823 -1.139604
 O 2.640097 -1.563903 -2.122025
 C 3.350050 0.628605 -1.159874
 C 4.565205 1.379705 -0.707889
 O 4.270921 2.597042 -0.047072
 H 0.664483 0.759748 -0.255697
 H 0.644878 -0.795573 0.256321
 H 2.867548 -0.049321 0.888626
 H 4.210107 -1.397412 -0.801191
 H 1.712399 -1.297226 -2.011901
 H 2.793479 1.067569 -1.985045
 H 5.235305 1.551192 -1.561185
 H 5.120560 0.781624 0.019687
 H 3.829016 3.177748 -0.671364