16
charge = 0
 N 1.011530 0.005702 0.002197
 C 2.446228 0.049472 0.135542
 C 3.076225 1.120802 1.032612
 O 4.373549 0.643837 1.307778
 C 4.281902 -0.763213 1.477239
 C 3.031645 -1.192958 0.757582
 C 2.491395 -2.400786 0.735321
 H 0.657604 0.840798 -0.445657
 H 0.568280 -0.079902 0.909352
 H 2.874531 0.166756 -0.868798
 H 2.480475 1.227015 1.954925
 H 3.166686 2.100386 0.559080
 H 4.226971 -1.019026 2.544664
 H 5.189564 -1.213759 1.066530
 H 2.952289 -3.241848 1.242200
 H 1.566107 -2.576486 0.198743