12
charge = 0
 N 0.965819 0.008326 -0.103339
 C 2.333574 0.050873 -0.098690
 C 3.198885 1.101113 -0.094272
 O 4.488598 0.661588 -0.090756
 C 4.450594 -0.688895 -0.092921
 C 3.163073 -1.113333 -0.097749
 O 2.625702 -2.360412 -0.101360
 H 0.415359 0.842176 -0.102732
 H 0.502330 -0.878015 -0.105033
 H 3.056756 2.168066 -0.093140
 H 5.395778 -1.206111 -0.090625
 H 3.328233 -3.014867 -0.100173