16
charge = 0
 N 1.038935 -0.047782 -0.194062
 C 2.440728 0.007723 0.140028
 C 2.908060 1.069605 1.130257
 O 4.157736 0.627531 1.628326
 C 4.285075 -0.769500 1.407177
 C 2.956973 -1.252649 0.827197
 O 3.051182 -2.405191 0.037462
 H 0.729643 0.810893 -0.631465
 H 0.475246 -0.189261 0.636105
 H 3.006262 0.131629 -0.794668
 H 2.174440 1.162986 1.946855
 H 3.039556 2.056741 0.678563
 H 4.543619 -1.267705 2.345533
 H 5.092102 -0.961238 0.686981
 H 2.266917 -1.511639 1.639113
 H 3.421216 -2.162833 -0.816302