16
charge = 0
 N 1.065672 0.049982 0.698916
 C 2.390030 -0.060852 0.112898
 C 2.616514 1.129365 -0.804764
 O 3.912749 1.123471 -1.380508
 C 4.295411 -0.077921 -1.868945
 C 3.682607 -1.234811 -1.632264
 C 2.509132 -1.334428 -0.709229
 H 1.033111 0.794095 1.385394
 H 0.818738 -0.806645 1.179305
 H 3.200854 -0.060383 0.858972
 H 2.532386 2.072702 -0.261304
 H 1.860681 1.115065 -1.599764
 H 5.181819 0.008816 -2.486596
 H 4.078382 -2.127680 -2.099725
 H 2.623979 -2.198799 -0.044923
 H 1.573854 -1.489475 -1.261883