13
charge = 0
 N 0.886436 -0.060238 -0.092271
 C 2.158520 -0.023464 -0.091266
 C 2.950760 1.271167 -0.104286
 O 4.366710 1.196445 -0.101807
 C 4.950742 -0.027289 -0.088040
 C 4.273781 -1.169481 -0.076627
 N 2.882871 -1.169864 -0.078247
 H 0.492768 0.876469 -0.102732
 H 2.644981 1.850832 0.773317
 H 2.647064 1.831775 -0.994899
 H 6.028925 0.025557 -0.087340
 H 4.770821 -2.126715 -0.065814
 H 2.361731 -2.030181 -0.069588