12
charge = 0
 N 0.908807 0.109635 -0.041966
 C 2.277077 0.077675 -0.035712
 C 3.151595 1.117505 -0.032148
 O 4.449482 0.622889 -0.026196
 C 4.349562 -0.704305 -0.026175
 O 5.489448 -1.399186 -0.020857
 C 3.063320 -1.124909 -0.031760
 H 0.410422 0.976270 -0.043629
 H 0.382746 -0.739647 -0.042988
 H 3.052566 2.187527 -0.032981
 H 6.223485 -0.775620 -0.017710
 H 2.718291 -2.145426 -0.032957