13
charge = 0
 N 1.394489 0.067238 0.741154
 C 2.289925 -0.093591 -0.129962
 N 2.846393 -1.250134 -0.668754
 C 3.997759 -0.928988 -1.447408
 C 5.089003 -0.127448 -0.774941
 C 3.966743 0.557217 -1.487116
 O 2.875200 0.983131 -0.718061
 H 1.022774 -0.823326 1.053160
 H 2.869487 -2.054294 -0.063293
 H 4.199366 -1.542715 -2.316031
 H 6.057549 -0.104892 -1.259547
 H 5.103943 -0.088676 0.308072
 H 4.121569 1.154398 -2.374362