13
charge = 0
 N 1.193000 0.097003 0.619557
 C 2.268952 -0.199710 0.013668
 N 2.732226 -1.403033 -0.459421
 C 4.062897 -1.368043 -1.028280
 C 4.423293 0.094704 -0.955031
 O 3.552284 0.912390 -1.709531
 C 3.325260 0.805236 -0.304372
 H 0.605766 -0.721682 0.772210
 H 2.105808 -2.169489 -0.629704
 H 4.079764 -1.726358 -2.063220
 H 4.772113 -1.965205 -0.442986
 H 5.459513 0.409689 -0.900602
 H 3.413315 1.712788 0.278913