11
charge = 0
 N 1.030254 -0.011954 -0.050089
 C 2.277840 -0.072856 0.096032
 O 3.020888 1.131221 0.136997
 C 4.340831 1.102336 0.290693
 C 5.023193 -0.044786 0.412144
 C 4.237006 -1.240202 0.365301
 N 2.959925 -1.261374 0.218492
 H 0.720824 0.953537 -0.121442
 H 4.776379 2.095009 0.304254
 H 6.095394 -0.057248 0.536642
 H 4.730577 -2.206783 0.457988