15
charge = 0
 N 1.170576 0.057897 0.586528
 C 2.297408 -0.072006 0.019266
 N 2.941533 -1.256128 -0.268188
 C 4.087718 -1.391911 -1.140954
 C 4.915378 -0.129745 -1.060779
 C 3.985701 1.042666 -1.249401
 O 2.971260 1.063367 -0.257759
 H 0.771047 -0.845284 0.820626
 H 2.351400 -2.065180 -0.181685
 H 3.781496 -1.560628 -2.184252
 H 4.668130 -2.263420 -0.826213
 H 5.688136 -0.131052 -1.832833
 H 5.405180 -0.055474 -0.085970
 H 3.522383 1.010096 -2.244816
 H 4.502655 1.997312 -1.149270