13
charge = 0
 N 1.478902 0.270221 0.557057
 C 2.526563 -0.033187 -0.059719
 O 2.680521 -1.134764 -0.854818
 C 4.035300 -1.264956 -1.265869
 C 4.669595 0.044603 -0.875135
 C 4.028841 1.274137 -1.359357
 N 3.709696 0.744015 -0.022100
 H 0.758853 -0.429510 0.396214
 H 4.056942 -1.471285 -2.338413
 H 4.497992 -2.100460 -0.732103
 H 5.701734 0.048050 -0.545612
 H 3.263256 1.186312 -2.124478
 H 4.571815 2.211004 -1.344087