10
charge = 0
 N 0.928569 -0.066040 0.044162
 C 2.078699 0.007165 0.048235
 C 3.483250 0.131007 0.053137
 C 4.294347 1.224492 0.053503
 C 5.621435 0.724219 0.059624
 C 5.511798 -0.628170 0.062478
 O 4.221831 -1.007030 0.058616
 H 3.970045 2.252534 0.049823
 H 6.536368 1.294026 0.061638
 H 6.235267 -1.426805 0.067083