16
charge = 0
 N 2.034657 1.418540 -0.203651
 C 2.495849 0.057645 -0.011913
 C 3.208737 -0.078713 1.313310
 C 3.730948 -1.501761 1.585410
 C 5.217227 -1.292895 1.603013
 C 5.464431 -0.001156 1.435108
 O 4.372322 0.788795 1.296670
 H 1.577198 1.521560 -1.099960
 H 2.828382 2.047908 -0.195576
 H 3.175486 -0.310939 -0.798478
 H 1.628979 -0.611798 0.005427
 H 2.560953 0.294659 2.110161
 H 3.414917 -2.195007 0.797071
 H 3.354989 -1.902333 2.531791
 H 5.959857 -2.064006 1.737494
 H 6.410659 0.521601 1.396944