11
charge = 0
 N 0.926967 0.008281 0.219946
 C 2.071564 0.051616 0.129147
 C 3.533715 0.072081 0.030506
 C 4.088910 -1.162902 -0.687384
 C 4.475706 -0.527341 -1.984669
 N 4.402363 0.735919 -1.993982
 O 3.951586 1.191682 -0.768403
 H 3.945352 0.208934 1.032072
 H 3.350505 -1.956761 -0.800594
 H 4.962261 -1.579952 -0.178847
 H 4.828670 -1.043656 -2.867591