18
charge = 0
 N 2.671717 -1.384545 0.271533
 C 2.401863 0.033599 0.088045
 C 2.896180 0.844002 1.268854
 C 2.692346 2.349172 1.133598
 C 2.772659 2.809650 2.578209
 O 2.261581 1.742198 3.363941
 C 2.155069 0.570579 2.573599
 H 2.427678 -1.904948 -0.561331
 H 2.109061 -1.761510 1.024703
 H 1.334883 0.267058 -0.070364
 H 2.930812 0.359630 -0.812934
 H 3.961103 0.630526 1.412942
 H 1.699647 2.555543 0.719158
 H 3.435004 2.829062 0.493674
 H 2.182652 3.707892 2.779780
 H 3.812118 3.011877 2.869275
 H 1.092681 0.359909 2.371886
 H 2.570625 -0.271095 3.135034