14
charge = 0
 N 0.903814 -0.103619 0.474224
 C 2.025652 -0.054514 0.225058
 C 3.444566 -0.006619 -0.073598
 C 4.185533 1.196856 0.561537
 C 5.374275 0.536722 1.270818
 O 5.523306 -0.735656 0.673921
 C 4.221783 -1.218163 0.482316
 H 3.555699 0.021255 -1.159993
 H 3.548579 1.745337 1.254806
 H 4.510696 1.887463 -0.215918
 H 5.169704 0.426193 2.344506
 H 6.311804 1.078951 1.148615
 H 3.774361 -1.547422 1.430816
 H 4.255217 -2.060684 -0.207808