12
charge = 0
 N 0.904404 0.078020 -0.016918
 C 2.055503 0.024933 -0.028021
 C 3.471069 0.003686 -0.039009
 C 4.254457 -1.069122 -0.110240
 C 5.678844 -0.641328 -0.093515
 O 5.646547 0.770806 -0.007424
 C 4.316353 1.245446 0.031683
 H 3.925518 -2.097549 -0.171140
 H 6.211452 -0.953309 -1.002919
 H 6.222855 -1.061006 0.764394
 H 4.125292 1.917382 -0.814586
 H 4.138007 1.807653 0.957075