18
charge = 0
 N 2.651453 -1.412390 0.124691
 C 2.397257 0.017609 0.209828
 C 2.784401 0.706921 -1.074564
 C 2.681676 2.244264 -1.135855
 C 4.015966 2.284098 -1.889832
 O 3.757838 2.378044 -3.273676
 C 4.288174 0.844280 -1.407888
 H 2.384249 -1.877511 0.982964
 H 3.641615 -1.584124 -0.005359
 H 2.922728 0.513768 1.044886
 H 1.325253 0.162064 0.384576
 H 2.250777 0.245833 -1.908217
 H 2.767884 2.696711 -0.144298
 H 1.832890 2.683096 -1.661144
 H 4.737201 3.049548 -1.579245
 H 4.573374 2.190588 -3.745873
 H 4.904069 0.838664 -0.502550
 H 4.720894 0.158518 -2.139824