15
charge = 0
 N 2.769616 -1.276566 0.217876
 C 2.503380 0.145355 0.077610
 C 2.883773 0.618670 -1.305497
 C 2.972196 2.144760 -1.525368
 C 4.441527 1.896405 -1.888520
 O 5.354399 2.558846 -2.292575
 N 4.319211 0.564573 -1.599296
 H 2.326620 -1.646725 1.048440
 H 3.764142 -1.436566 0.324521
 H 3.023233 0.772684 0.818687
 H 1.429571 0.311221 0.209104
 H 2.283566 0.096373 -2.056371
 H 2.825601 2.755459 -0.633676
 H 2.379689 2.540969 -2.349123
 H 4.913667 -0.206958 -1.861203