14
charge = 0
 N 3.289601 -0.222020 -0.957799
 C 2.318687 -0.098117 0.109976
 C 2.911731 -0.586165 1.401004
 C 1.973388 -0.777748 2.589237
 C 2.315579 -2.244621 2.417912
 O 2.042008 -3.276214 2.930870
 O 3.150965 -2.034813 1.362267
 H 2.920982 0.138687 -1.827715
 H 3.518027 -1.197689 -1.107477
 H 1.373581 -0.638996 -0.062723
 H 2.066572 0.960126 0.239077
 H 3.852998 -0.078140 1.616733
 H 0.922492 -0.545018 2.414527
 H 2.295280 -0.354772 3.539802