17
charge = 0
 N 1.552525 -1.134681 -0.665548
 C 2.038254 -0.147303 0.286133
 C 3.111962 0.715749 -0.333942
 C 4.201314 -0.000834 -1.086727
 N 4.727985 -1.109848 -0.304391
 C 2.848137 2.113569 -0.652432
 O 3.559469 1.764680 0.527237
 H 0.695835 -1.552419 -0.326750
 H 2.236871 -1.880089 -0.734780
 H 2.455919 -0.588414 1.202038
 H 1.211139 0.498677 0.589979
 H 4.954281 0.745258 -1.377344
 H 3.766157 -0.406088 -2.004913
 H 5.194862 -0.762038 0.524896
 H 5.416554 -1.625345 -0.836932
 H 1.850100 2.514950 -0.493446
 H 3.437523 2.617480 -1.415977