16
charge = 0
 N 2.996410 -0.713832 0.860085
 C 2.387086 0.111215 -0.177557
 C 3.240194 1.318181 -0.437818
 C 2.667542 2.587375 -0.989544
 O 1.312789 2.601226 -1.307206
 C 3.105934 2.540699 0.433815
 O 4.223664 3.291787 0.781412
 H 2.462812 -1.564243 0.992055
 H 2.980273 -0.220923 1.745467
 H 1.362673 0.435717 0.047486
 H 2.328542 -0.487937 -1.091612
 H 4.252111 1.097110 -0.763327
 H 3.315042 3.148972 -1.659857
 H 0.975128 3.485283 -1.139093
 H 2.303171 2.516903 1.171475
 H 4.796540 2.747268 1.328129