17
charge = 0
 N 1.392740 -0.776695 1.183062
 C 2.304024 -0.088467 0.283769
 C 3.296312 -1.029802 -0.360728
 C 4.218749 -0.372716 -1.366494
 O 4.923542 -1.317463 -2.121602
 C 3.742063 -2.242759 0.343740
 N 2.824830 -2.336332 -0.796804
 H 0.516076 -0.281261 1.260123
 H 1.776976 -0.852513 2.115093
 H 2.857865 0.733451 0.760568
 H 1.709835 0.364664 -0.517215
 H 4.948358 0.262837 -0.854095
 H 3.613045 0.279823 -2.017320
 H 4.299138 -2.048346 -2.250360
 H 3.330389 -2.449402 1.325718
 H 4.739358 -2.626733 0.161397
 H 1.880609 -2.471377 -0.442831