17
charge = 0
 N 0.870722 -0.534623 -0.022752
 C 2.252800 -0.089550 -0.053799
 C 2.916796 -0.326190 -1.392739
 N 4.292303 0.081447 -1.494833
 C 2.554998 -1.525573 -2.232071
 C 2.160785 -0.146956 -2.676719
 O 2.804000 0.454206 -3.744635
 H 0.363514 -0.084188 0.726146
 H 0.813914 -1.531885 0.136876
 H 2.882241 -0.551209 0.726070
 H 2.263005 0.989888 0.139929
 H 4.916729 -0.572415 -1.039879
 H 4.433858 0.993814 -1.076624
 H 1.776117 -2.191245 -1.881030
 H 3.363618 -2.001396 -2.774831
 H 1.112355 0.115162 -2.608695
 H 3.737434 0.493002 -3.483125