17
charge = 0
 N 2.494880 0.397931 -1.740689
 C 2.560916 0.107766 -0.317977
 C 3.182663 1.235625 0.470087
 O 3.349126 0.924463 1.824907
 C 4.281519 2.085310 -0.087118
 C 2.927086 2.683715 0.134964
 N 2.753910 3.692663 1.138118
 H 1.825277 -0.205895 -2.197214
 H 3.390065 0.230221 -2.181523
 H 3.111070 -0.813661 -0.072831
 H 1.535367 -0.036388 0.044582
 H 2.482411 0.947829 2.243438
 H 4.616121 1.935486 -1.106196
 H 5.061933 2.352662 0.616475
 H 2.345568 2.856198 -0.763941
 H 3.301764 3.466838 1.959830
 H 1.784115 3.746846 1.427490