16
charge = 0
 N 2.312916 -1.328390 0.108751
 C 2.538386 0.096543 -0.061048
 C 3.027749 0.359183 -1.461565
 O 3.231469 1.752422 -1.744885
 C 4.461722 1.472967 -2.425976
 C 4.490793 0.062553 -1.829748
 O 4.815869 -1.038311 -2.618102
 H 1.923158 -1.525191 1.020716
 H 3.183939 -1.840889 0.039000
 H 3.255029 0.540504 0.647659
 H 1.587724 0.621498 0.074724
 H 2.332253 -0.098067 -2.182958
 H 5.256596 2.172759 -2.157011
 H 4.332090 1.467766 -3.517473
 H 5.127500 0.006400 -0.943673
 H 4.220327 -1.063638 -3.373021