16
charge = 0
 N 2.770315 1.487179 -0.157907
 C 2.423979 0.099924 0.107963
 C 3.019678 -0.796434 -0.969684
 O 2.544478 -2.125747 -0.806965
 C 3.627620 -3.039694 -0.781945
 C 4.852979 -2.187896 -0.808985
 C 4.508549 -0.915024 -0.923437
 H 2.543464 2.071229 0.635728
 H 2.239811 1.841742 -0.944583
 H 1.344058 -0.101478 0.153748
 H 2.848944 -0.190530 1.072873
 H 2.691313 -0.411322 -1.951367
 H 3.573045 -3.714901 -1.649087
 H 3.561835 -3.661668 0.120654
 H 5.857975 -2.584952 -0.747067
 H 5.162257 -0.055517 -0.971227