16
charge = 0
 N 3.391701 0.504135 1.141404
 C 2.437424 0.086692 0.137079
 C 2.903206 0.387386 -1.277432
 O 1.994467 -0.147657 -2.206391
 C 3.377934 1.825015 -1.562692
 O 4.726092 1.390368 -1.740629
 C 4.346945 0.011046 -1.612730
 H 3.134897 0.153303 2.053577
 H 3.449694 1.511858 1.208322
 H 1.431060 0.531414 0.257565
 H 2.312755 -0.998202 0.209618
 H 1.101798 0.087945 -1.935091
 H 3.284909 2.560585 -0.754100
 H 2.946988 2.238357 -2.481465
 H 4.902469 -0.489847 -0.816671
 H 4.435151 -0.531288 -2.558973