18
charge = 0
 N 0.936509 0.031178 -0.155795
 C 2.372260 0.053348 0.076153
 C 3.121439 0.273826 -1.226230
 C 4.611331 0.346594 -1.043394
 C 5.478579 1.041202 -2.060448
 C 5.277757 1.649081 -0.719233
 O 6.392780 1.675523 0.115606
 H 0.432903 -0.086558 0.714182
 H 0.688330 -0.753838 -0.746473
 H 2.758600 -0.859193 0.559786
 H 2.591180 0.882938 0.756836
 H 2.754872 1.196067 -1.689157
 H 2.875935 -0.536161 -1.925645
 H 5.072947 -0.518316 -0.574318
 H 4.999986 1.506223 -2.914120
 H 6.457818 0.620618 -2.250876
 H 4.639001 2.529661 -0.660942
 H 6.092975 1.556208 1.020781