18
charge = 0
 N 0.811836 0.277213 0.212073
 C 2.010224 -0.465747 -0.146222
 C 3.229069 0.126368 0.537435
 C 4.491561 -0.641669 0.249459
 C 5.748001 -0.309741 1.063041
 C 5.735082 -1.797547 1.416503
 O 4.465603 -1.984479 0.777701
 H -0.011901 -0.164602 -0.175678
 H 0.848726 1.215258 -0.169188
 H 2.195957 -0.512718 -1.232102
 H 1.886937 -1.497027 0.195703
 H 3.054958 0.154820 1.617608
 H 3.377188 1.162898 0.205083
 H 4.678304 -0.672037 -0.833793
 H 5.553171 0.352052 1.907772
 H 6.609952 0.054462 0.505761
 H 5.699922 -2.054099 2.479044
 H 6.520700 -2.388916 0.932309