14
charge = 0
 N 4.107137 -2.415278 0.242585
 C 3.871526 -1.294600 0.145869
 C 3.592458 0.126655 0.016621
 C 4.271589 0.963256 1.088008
 C 3.928601 2.455982 1.118580
 C 3.528412 2.177101 2.569037
 O 3.707141 0.762979 2.387152
 H 2.510755 0.281767 0.062772
 H 3.936844 0.458043 -0.968739
 H 5.347958 0.752976 1.092269
 H 3.094908 2.727659 0.469844
 H 4.754443 3.146648 0.958024
 H 2.503838 2.424515 2.857337
 H 4.220411 2.574577 3.318341