18
charge = 0
 N 0.874913 -0.123681 -0.248663
 C 2.211573 0.370728 -0.536247
 C 3.262623 -0.532500 0.083299
 C 4.674611 -0.105602 -0.243682
 C 5.821165 -1.035952 0.171132
 O 6.321051 -1.100974 -1.170713
 C 5.197674 -0.360782 -1.664735
 H 0.173617 0.453433 -0.695138
 H 0.692935 -0.089451 0.747494
 H 2.386467 1.405562 -0.197780
 H 2.339176 0.375124 -1.624483
 H 3.092450 -1.558579 -0.260552
 H 3.130646 -0.543750 1.173313
 H 4.846500 0.925391 0.076706
 H 5.494319 -2.019785 0.530556
 H 6.563295 -0.629056 0.864748
 H 4.539375 -0.986282 -2.281541
 H 5.508520 0.512847 -2.245693