18
charge = 0
 N 2.651689 1.550364 -0.030340
 C 2.420525 0.105908 0.037008
 C 3.257026 -0.631356 -0.999295
 C 4.740208 -0.434359 -0.809188
 O 5.176743 0.872597 -1.014971
 C 5.453152 -1.250858 0.232628
 C 5.696042 -1.486683 -1.239164
 H 2.231413 2.022974 0.759339
 H 2.233458 1.938224 -0.868223
 H 1.361741 -0.162877 -0.085891
 H 2.721839 -0.227824 1.034553
 H 2.981896 -0.294906 -2.006973
 H 3.018897 -1.697694 -0.945068
 H 4.536266 1.434411 -0.541081
 H 4.901054 -2.000961 0.788301
 H 6.236059 -0.749730 0.787308
 H 5.307967 -2.393171 -1.688543
 H 6.636627 -1.137949 -1.646621