12
charge = 0
 N 0.999695 0.075725 -0.073167
 C 2.140063 -0.083262 -0.110881
 C 3.548581 -0.279580 -0.125812
 C 4.262953 -0.286412 -1.249856
 C 5.730128 -0.466646 -1.288162
 C 6.424056 -1.455747 -0.471139
 O 6.194015 -1.684462 -1.852408
 H 4.021189 -0.417968 0.841510
 H 3.767726 -0.134664 -2.205108
 H 6.288776 0.409027 -1.620712
 H 5.852387 -2.089057 0.201942
 H 7.461421 -1.286643 -0.195017