10
charge = 0
 N 0.981904 0.037864 -0.101988
 C 2.136445 0.001360 -0.109210
 C 3.502087 -0.045107 -0.115910
 C 4.706633 -0.088783 -0.129336
 C 6.138366 -0.144918 -0.108280
 C 6.881829 -0.825974 -1.177027
 O 6.828567 0.581601 -1.113660
 H 6.584596 -0.092946 0.882388
 H 6.327691 -1.279788 -1.993439
 H 7.841191 -1.274019 -0.932338