16
charge = 0
 N 0.704222 -0.296615 0.154088
 C 2.148237 -0.242228 0.038440
 C 2.920876 0.135211 1.275085
 C 2.396059 0.438645 2.453161
 C 2.642492 -1.575328 -0.476009
 C 2.854283 -1.819561 -1.894024
 O 3.951188 -1.593017 -1.017034
 H 0.334014 0.613572 0.398139
 H 0.431781 -0.932255 0.895694
 H 2.392284 0.493621 -0.738951
 H 4.001462 0.140494 1.148972
 H 1.323398 0.446918 2.618769
 H 3.021986 0.695514 3.299388
 H 2.413156 -2.426630 0.166886
 H 2.651203 -1.019612 -2.601659
 H 2.778159 -2.829528 -2.287934