16
charge = 0
 N 2.174435 1.546710 -0.012684
 C 2.904691 0.310280 -0.253529
 C 3.045003 -0.459378 1.016025
 C 4.195988 -0.908782 1.503943
 C 4.306592 -1.684755 2.745086
 C 5.372309 -2.669542 2.944057
 O 5.436525 -1.406748 3.573115
 H 1.998026 2.035454 -0.880962
 H 2.716073 2.164445 0.579262
 H 3.899542 0.446933 -0.704540
 H 2.315477 -0.282417 -0.963895
 H 2.120176 -0.636621 1.562403
 H 5.129748 -0.711368 0.980215
 H 3.378716 -1.829993 3.296112
 H 6.097482 -2.833337 2.149728
 H 5.199016 -3.516500 3.604175