16
charge = 0
 N 1.570802 0.621183 0.220420
 C 2.975441 0.284849 0.117801
 C 3.371486 -0.879501 0.978802
 C 2.509170 -1.611061 1.673533
 C 4.834788 -1.136918 1.018189
 C 5.405529 -2.474328 0.925092
 O 5.434052 -1.600220 -0.191544
 H 1.316168 1.300938 -0.483182
 H 1.366718 1.030146 1.124096
 H 3.655617 1.122184 0.353402
 H 3.195240 0.016659 -0.921940
 H 1.446434 -1.405125 1.631304
 H 2.844760 -2.438910 2.287485
 H 5.429387 -0.368501 1.515493
 H 4.739776 -3.327451 0.827015
 H 6.372533 -2.678843 1.378533