14
charge = 0
 N 1.545560 0.258855 -0.001592
 C 2.832657 -0.179693 0.106409
 C 3.802309 0.451959 -0.792137
 C 3.595222 1.588766 -1.452200
 C 3.178774 -1.117454 1.032133
 C 4.517879 -1.567304 1.314517
 O 4.787037 -2.404580 2.151371
 H 1.242932 0.610586 -0.893359
 H 0.843582 -0.228937 0.528039
 H 4.745745 -0.063206 -0.916069
 H 2.689336 2.174087 -1.339297
 H 4.354113 1.991804 -2.111231
 H 2.402322 -1.568828 1.643797
 H 5.334532 -1.108055 0.721040