18
charge = 0
 N 0.700975 0.164590 -0.098160
 C 1.953597 -0.518887 0.181227
 C 2.973114 -0.203660 -0.909072
 C 4.328436 -0.799018 -0.663582
 C 5.392620 -0.050778 -0.392264
 C 4.415615 -2.298243 -0.750739
 O 5.715909 -2.825815 -0.719147
 H 0.037157 0.016035 0.651210
 H 0.278056 -0.202767 -0.942468
 H 1.845593 -1.609644 0.284717
 H 2.338150 -0.148601 1.136344
 H 3.052357 0.882317 -0.995720
 H 2.581253 -0.572181 -1.867470
 H 5.320500 1.030192 -0.351984
 H 6.359157 -0.494411 -0.183562
 H 3.876135 -2.624969 -1.654901
 H 3.889698 -2.750158 0.096616
 H 6.219487 -2.409401 -1.424646