16
charge = 0
 N 0.964279 -0.217482 0.070712
 C 2.416242 -0.213805 0.032925
 C 2.967506 0.108974 1.419862
 C 4.419203 0.098998 1.471067
 C 5.622821 0.085343 1.477012
 C 7.078839 0.043657 1.532349
 O 7.607364 -1.266634 1.572019
 H 0.584631 -0.561382 -0.801662
 H 0.607110 0.722124 0.196914
 H 2.850724 0.489479 -0.692356
 H 2.755799 -1.212254 -0.253894
 H 2.559263 -0.611360 2.135771
 H 2.604148 1.094343 1.736259
 H 7.420965 0.633067 2.394759
 H 7.499544 0.511737 0.638564
 H 7.127882 -1.755975 2.245878