15
charge = 0
 N 0.889516 0.041150 -0.133172
 C 2.301785 -0.205793 0.081412
 C 2.630310 -0.620666 1.492941
 C 3.413698 0.065487 2.313222
 C 2.820779 -1.252412 -0.855324
 N 2.021441 -1.984937 -1.503969
 O 2.680492 -2.919326 -2.279897
 H 0.464875 0.421018 0.701894
 H 0.414363 -0.816229 -0.386612
 H 2.862784 0.715938 -0.129347
 H 2.150057 -1.538714 1.827611
 H 3.896948 0.984147 1.993968
 H 3.600804 -0.261258 3.329530
 H 3.900386 -1.386732 -0.931430
 H 1.963942 -3.372082 -2.733117