15
charge = 0
 N 2.043817 1.204581 -0.624454
 C 2.966487 0.142301 -0.249568
 C 2.923855 -0.081897 1.222634
 C 3.995094 -0.095036 2.018138
 C 3.916850 -0.326031 3.440895
 N 4.980413 -0.328954 4.141544
 O 4.708691 -0.562879 5.473248
 H 1.989538 1.295033 -1.630810
 H 2.361512 2.092643 -0.256108
 H 4.008657 0.309026 -0.561443
 H 2.629865 -0.772694 -0.752886
 H 1.932586 -0.230294 1.646676
 H 4.989629 0.068715 1.611301
 H 2.944507 -0.496197 3.907315
 H 5.578699 -0.540908 5.881418