15
charge = 0
 N 3.892975 1.103871 -0.016020
 C 2.780741 0.182630 0.106004
 C 3.195458 -1.246359 0.091939
 C 4.446791 -1.690798 0.093233
 C 4.722662 -3.148778 0.074534
 N 6.043582 -3.469537 0.128697
 O 3.856517 -3.999359 0.005992
 H 3.583676 2.056119 0.125351
 H 4.292158 1.053064 -0.945588
 H 2.002095 0.311500 -0.664988
 H 2.273559 0.376299 1.060042
 H 2.399900 -1.988120 0.072475
 H 5.276924 -0.992064 0.129187
 H 6.751016 -2.773747 0.274124
 H 6.294266 -4.441321 0.178519