17
charge = 0
 N 2.627453 -1.118896 0.841714
 C 2.124507 -0.136714 -0.116496
 C 2.871657 1.184880 -0.015593
 C 4.397973 1.072734 -0.016538
 C 4.936191 0.345892 -1.233701
 N 5.007644 -1.000927 -1.088009
 O 5.275866 0.925551 -2.245860
 H 2.068037 -1.962442 0.810915
 H 2.558823 -0.760197 1.787603
 H 1.049735 0.064226 -0.004871
 H 2.262799 -0.555712 -1.117862
 H 2.569414 1.702823 0.902209
 H 2.552675 1.820420 -0.846483
 H 4.731688 0.562958 0.890173
 H 4.831500 2.073275 -0.025401
 H 4.504307 -1.430975 -0.321759
 H 5.243750 -1.545016 -1.900630