12
charge = 0
 N 0.934433 -0.122141 -0.014432
 C 2.381276 -0.081433 -0.054567
 C 2.986451 -0.580198 -1.294499
 C 3.441027 -1.006309 -2.320446
 C 2.829522 1.362350 0.144451
 O 4.067731 1.431682 0.638837
 O 2.160485 2.317611 -0.126215
 H 0.600111 -0.985510 -0.421666
 H 0.569240 0.649977 -0.561188
 H 2.790343 -0.663331 0.778914
 H 3.845667 -1.382806 -3.230322
 H 4.300614 2.369607 0.691933