16
charge = 0
 N 2.768234 0.399130 1.473639
 C 2.359326 -0.053084 0.150463
 C 3.109301 0.704534 -0.935063
 C 4.612265 0.503618 -0.875260
 C 5.058056 -0.839494 -1.373253
 O 6.387546 -1.001118 -1.238879
 O 4.357028 -1.692036 -1.850264
 H 2.409241 -0.215109 2.192463
 H 2.401126 1.323807 1.664491
 H 1.279276 0.046047 -0.033540
 H 2.594303 -1.117139 0.066385
 H 2.894171 1.774453 -0.836606
 H 2.731270 0.392941 -1.912061
 H 4.970874 0.618632 0.151988
 H 5.144515 1.253888 -1.468757
 H 6.592777 -1.879481 -1.588478