15
charge = 0
 N 3.485450 0.845040 0.580818
 C 2.516188 0.072390 -0.184850
 C 2.930947 -0.041183 -1.629586
 C 2.057419 0.030302 -2.632855
 N 4.300253 -0.269927 -1.752268
 C 5.016658 -0.536838 -2.874469
 O 4.576601 -0.673366 -3.990342
 H 3.348169 0.721091 1.574323
 H 3.402098 1.833875 0.378685
 H 1.492209 0.461119 -0.150010
 H 2.494498 -0.935040 0.246467
 H 1.016318 0.218288 -2.401663
 H 2.351596 -0.111046 -3.661202
 H 4.810792 -0.104880 -0.893365
 H 6.096005 -0.627115 -2.647164