19
charge = 0
 N 2.724442 1.111311 -1.104070
 C 2.441967 0.024742 -0.165070
 C 3.045383 -1.291799 -0.652801
 C 2.560995 -1.683742 -2.047016
 N 1.126220 -1.485814 -2.208869
 C 4.572367 -1.252190 -0.615365
 O 5.124587 -0.297738 -1.487849
 H 2.500543 2.006782 -0.689222
 H 2.124298 1.002387 -1.914897
 H 1.367442 -0.104033 0.010988
 H 2.901861 0.278561 0.795421
 H 2.727902 -2.066028 0.059838
 H 2.891163 -2.714799 -2.244454
 H 3.072412 -1.055277 -2.780612
 H 0.605996 -2.107839 -1.600950
 H 0.844608 -1.704456 -3.156089
 H 4.977404 -2.229016 -0.903455
 H 4.890994 -1.066605 0.422961
 H 4.523213 0.470135 -1.461989