16
charge = 0
 N 1.102850 0.328762 0.307618
 C 2.530152 0.205241 0.044831
 C 3.115992 -0.919539 0.877281
 C 4.609707 -1.120071 0.632038
 O 5.373544 0.028918 0.959534
 C 5.102688 -2.303440 1.335738
 C 5.500077 -3.256139 1.948833
 H 0.695393 1.043850 -0.281760
 H 0.947569 0.620406 1.265697
 H 3.102324 1.124860 0.227939
 H 2.655013 -0.038015 -1.016126
 H 2.585649 -1.849663 0.655136
 H 2.964160 -0.719178 1.945361
 H 4.771999 -1.266679 -0.442052
 H 5.463221 0.059797 1.916745
 H 5.857683 -4.105099 2.482307