11
charge = 0
 N 0.944138 0.085034 -0.153843
 C 2.266458 -0.045272 -0.011989
 C 2.947022 -0.850011 0.860226
 C 2.292833 -1.733104 1.816623
 O 2.856122 -2.455099 2.598907
 C 4.367622 -0.812169 0.819983
 N 5.518067 -0.766255 0.770855
 H 0.572242 0.716236 -0.837972
 H 0.289071 -0.430954 0.404765
 H 2.848820 0.576034 -0.684796
 H 1.180204 -1.709990 1.790780