13
charge = 0
 N 1.046796 0.096629 -0.079495
 C 2.383740 -0.013939 0.093586
 C 3.046626 -1.005292 0.735794
 C 2.378268 -2.174996 1.395441
 O 2.457086 -3.371975 0.648326
 C 4.464244 -0.949457 0.752336
 N 5.617877 -0.916776 0.783471
 H 0.668392 0.968006 -0.399846
 H 0.416274 -0.507738 0.416687
 H 2.960422 0.781041 -0.367489
 H 1.330018 -1.925450 1.616915
 H 2.857376 -2.388401 2.353011
 H 2.329252 -3.157090 -0.279515