14
charge = 0
 N 0.507694 -0.738904 0.161040
 C 1.726114 -0.202564 -0.041585
 C 2.906607 -0.849728 0.059570
 C 4.180385 -0.211339 -0.161883
 O 5.236612 -0.819143 -0.067204
 C 4.264430 1.268295 -0.528496
 O 5.592125 1.644235 -0.691258
 H -0.324502 -0.198921 0.025350
 H 0.403444 -1.713120 0.380515
 H 1.703484 0.851342 -0.301958
 H 2.944076 -1.903507 0.318201
 H 3.787745 1.861742 0.264727
 H 3.696276 1.441740 -1.453570
 H 6.091219 0.826060 -0.515959