12
charge = 0
 N 0.745535 -0.253011 -0.194171
 C 2.049230 0.038358 -0.093471
 C 3.053140 -0.829386 0.173465
 C 4.403867 -0.342521 0.245675
 O 4.781483 0.808232 0.089893
 C 5.482239 -1.380559 0.550811
 O 5.272881 -2.547688 0.729067
 H 0.070875 0.459760 -0.395964
 H 0.412521 -1.192490 -0.069794
 H 2.307604 1.083280 -0.244748
 H 2.883427 -1.887093 0.337232
 H 6.498389 -0.937261 0.591897