14
charge = 0
 N 1.716208 -0.518555 -1.216709
 C 2.684530 -0.357188 -0.141404
 C 2.925075 1.090426 0.120126
 C 4.129106 1.634879 0.067619
 O 4.289816 2.978992 0.328769
 C 5.528016 3.492297 0.243079
 O 6.521203 2.896166 -0.042673
 H 1.478674 -1.494232 -1.342454
 H 2.102586 -0.183856 -2.090772
 H 3.648419 -0.859382 -0.315901
 H 2.252567 -0.812278 0.757422
 H 2.060488 1.708328 0.343522
 H 5.043528 1.103183 -0.164651
 H 5.477992 4.563109 0.481828