17
charge = 0
 N 0.974524 -0.068533 -0.235249
 C 2.395918 -0.105088 0.087770
 C 2.899965 1.322677 0.272548
 N 2.262212 2.040946 1.363654
 C 4.393366 1.438951 0.442497
 C 5.251646 0.372249 0.954779
 O 5.225139 0.690649 -0.427529
 H 0.565442 -0.991035 -0.167631
 H 0.839304 0.241613 -1.190415
 H 3.012510 -0.619099 -0.662437
 H 2.506659 -0.644833 1.034296
 H 2.656700 1.870445 -0.650227
 H 2.523329 1.615922 2.247780
 H 1.258902 1.917634 1.272942
 H 4.722652 2.464768 0.602350
 H 4.827331 -0.594303 1.213029
 H 6.172211 0.629757 1.472832