16
charge = 0
 N 0.814580 -0.186689 0.221141
 C 2.261811 -0.171906 0.085702
 C 3.001360 0.047825 1.402611
 O 2.590224 1.239025 2.044608
 C 2.721684 -1.445160 -0.566561
 C 2.882585 -1.559150 -2.008471
 O 4.011614 -1.424023 -1.155982
 H 0.538006 0.599162 0.800426
 H 0.523597 -1.020041 0.722583
 H 2.527549 0.652232 -0.590396
 H 4.085055 0.036320 1.232136
 H 2.762257 -0.765234 2.095983
 H 2.980737 1.983256 1.579461
 H 2.507182 -2.357524 -0.005517
 H 2.662661 -0.695467 -2.630718
 H 2.779779 -2.527924 -2.490104