18
charge = 0
 N 1.749943 0.942408 0.049810
 C 2.659045 -0.066356 0.569115
 C 2.946510 0.094134 2.057490
 O 3.437421 1.385094 2.368225
 C 2.115549 -1.455781 0.247232
 C 3.090454 -2.562104 0.475446
 C 2.888665 -3.617964 1.251384
 H 2.026783 1.848878 0.412140
 H 0.813503 0.770403 0.402220
 H 3.612832 0.054956 0.033167
 H 3.635135 -0.686387 2.404720
 H 2.013054 -0.014535 2.619841
 H 4.343325 1.446424 2.054700
 H 1.819437 -1.441722 -0.808013
 H 1.204366 -1.636712 0.830886
 H 4.034778 -2.478975 -0.061866
 H 1.962935 -3.745769 1.804423
 H 3.635946 -4.395682 1.358082