16
charge = 0
 N 2.675160 0.725243 -1.264215
 C 2.447912 -0.091860 -0.076282
 C 3.071531 -1.467251 -0.288229
 O 2.629128 -2.001300 -1.508094
 C 4.610152 -1.436974 -0.268444
 C 5.171723 -0.985120 0.991314
 C 5.609668 -0.607372 2.044250
 H 3.557647 1.217119 -1.214711
 H 1.951121 1.419761 -1.378998
 H 1.370478 -0.232586 0.035804
 H 2.826403 0.353471 0.850952
 H 2.732810 -2.134898 0.509948
 H 2.574022 -1.234694 -2.100817
 H 4.964802 -0.800423 -1.087081
 H 4.964403 -2.446929 -0.493083
 H 6.008649 -0.280377 2.975086