11
charge = 0
 N 0.875634 -0.020072 0.070130
 C 2.216994 -0.029112 0.068132
 C 2.824029 1.276635 0.451998
 O 2.140441 2.226989 0.730869
 C 3.011315 -1.085591 -0.241796
 C 4.420058 -1.019774 -0.221717
 N 5.575115 -1.009211 -0.218053
 H 0.420533 0.841665 0.322783
 H 0.329242 -0.825704 -0.167117
 H 3.925426 1.312334 0.463254
 H 2.581453 -2.041168 -0.522734