13
charge = 0
 N 0.947428 -0.115782 -0.130590
 C 2.298465 -0.078908 -0.126171
 C 2.929199 -1.094059 0.792985
 O 2.217927 -2.314099 0.813183
 C 3.034780 0.823664 -0.817497
 C 4.443033 0.841951 -0.766500
 N 5.598468 0.864699 -0.740502
 H 0.519079 -0.957142 0.218734
 H 0.432192 0.421163 -0.804866
 H 2.890683 -0.702978 1.813982
 H 3.980787 -1.229565 0.530028
 H 2.460406 -2.821073 0.033517
 H 2.556324 1.582299 -1.426992