12
charge = 0
 N 1.239702 0.026059 0.114168
 C 2.578639 0.061877 0.101355
 C 3.130553 1.093819 1.043301
 O 2.382560 1.772972 1.701284
 C 3.373581 -0.735446 -0.668400
 C 4.822638 -0.740189 -0.722842
 O 5.600284 -0.043840 -0.101769
 H 0.766345 0.668973 0.729006
 H 0.714380 -0.607572 -0.457919
 H 4.223152 1.176956 1.083259
 H 2.890889 -1.456537 -1.323037
 H 5.219586 -1.492462 -1.436506