14
charge = 0
 N 1.181146 -0.102917 0.159272
 C 2.526218 -0.092637 0.040784
 C 3.214869 0.284351 1.332405
 O 2.493262 1.257599 2.061221
 C 3.170053 -0.457413 -1.099356
 C 4.596065 -0.482938 -1.282396
 O 5.147881 -0.824058 -2.309049
 H 0.776809 0.362153 0.954300
 H 0.605100 -0.252891 -0.649203
 H 4.241256 0.601692 1.148498
 H 3.250354 -0.601522 1.972738
 H 2.633610 2.114024 1.647762
 H 2.584697 -0.767768 -1.960983
 H 5.214479 -0.160374 -0.417804