15
charge = 0
 N 2.008876 -1.227022 -0.410136
 C 1.706606 -0.073628 0.420810
 C 2.941548 0.601033 1.000698
 O 2.855765 1.417188 1.893240
 N 4.106314 0.223765 0.409297
 C 5.341388 0.734861 0.760031
 C 6.491859 0.390434 0.189919
 H 1.321235 -1.350819 -1.139128
 H 2.032626 -2.078858 0.134527
 H 1.039260 -0.276441 1.265127
 H 1.210545 0.688348 -0.187159
 H 4.009896 -0.468061 -0.323847
 H 5.282534 1.460310 1.563128
 H 6.545000 -0.334789 -0.614648
 H 7.416737 0.838360 0.524442