13
charge = 0
 N 2.635980 -0.958193 0.117903
 C 2.146025 0.186858 0.369293
 N 2.826296 1.103197 1.106414
 C 2.750120 2.559882 0.987116
 C 4.243315 2.576406 1.336161
 O 5.041711 3.435060 1.525662
 C 4.269100 1.051439 1.339419
 H 1.977693 -1.524106 -0.406725
 H 1.155443 0.538387 0.057306
 H 2.096429 3.055955 1.710335
 H 2.538722 2.937506 -0.020443
 H 4.575671 0.576795 2.275133
 H 4.831605 0.604423 0.511117