15
charge = 0
 N 2.758056 0.476107 0.962516
 C 2.172817 0.004180 -0.064833
 N 2.823356 -0.241930 -1.229152
 C 4.187762 0.156712 -1.430792
 C 4.817877 -0.624348 -2.549366
 C 4.492031 -2.016233 -2.827439
 O 3.970202 -0.967193 -3.638544
 H 2.109586 0.543634 1.738731
 H 1.111980 -0.267107 -0.111335
 H 2.280338 -0.404059 -2.060654
 H 4.738064 -0.004860 -0.500641
 H 4.262648 1.230494 -1.653037
 H 5.800182 -0.263417 -2.849792
 H 3.760902 -2.523825 -2.204483
 H 5.226210 -2.651654 -3.315360