15
charge = 0
 N 2.385382 -0.335925 1.362693
 C 2.398163 -0.265980 -0.006455
 N 1.753319 -1.001337 -0.822424
 C 3.252235 0.853079 -0.547852
 C 4.706300 0.678366 -0.214636
 C 5.558875 1.808215 0.136053
 O 5.082290 0.924769 1.140684
 H 2.012943 -1.167434 1.788783
 H 3.139817 0.113022 1.858246
 H 1.213822 -1.715991 -0.333652
 H 2.903973 1.806199 -0.136728
 H 3.118975 0.871164 -1.629808
 H 5.181471 -0.204243 -0.639796
 H 5.130137 2.807272 0.155391
 H 6.628298 1.758224 -0.049699