17
charge = 0
 N 1.144196 -0.788947 -0.748151
 C 2.291795 -0.595308 -0.031570
 N 2.518324 -1.069137 1.130851
 C 3.323976 0.235647 -0.749241
 C 4.765362 0.149078 -0.257956
 C 5.079276 0.832226 1.070515
 O 4.778559 0.070842 2.202944
 H 0.327461 -1.138165 -0.277624
 H 0.979352 -0.234876 -1.569327
 H 1.734509 -1.600044 1.502383
 H 2.984963 1.279223 -0.703851
 H 3.288597 -0.042750 -1.808566
 H 5.385062 0.620038 -1.028821
 H 5.078712 -0.897546 -0.197321
 H 4.567548 1.811426 1.093582
 H 6.153451 1.043043 1.104581
 H 3.943347 -0.405761 2.008273