15
charge = 0
 N 0.723250 -0.194234 -0.256162
 C 2.075410 -0.244475 -0.040918
 N 2.681206 0.220172 0.987811
 C 2.896903 -0.932850 -1.069393
 C 2.363635 -1.690034 -2.024825
 C 4.390992 -0.787605 -0.919884
 O 4.819748 0.537921 -0.759576
 H 0.192281 0.426443 0.331139
 H 0.402093 -0.247854 -1.207236
 H 2.044172 0.672638 1.639868
 H 1.301090 -1.892810 -2.097249
 H 2.995587 -2.177229 -2.758869
 H 4.874725 -1.182400 -1.815850
 H 4.708023 -1.408248 -0.068981
 H 4.389186 0.830976 0.058626