13
charge = 0
 N 2.864176 -0.121975 1.172892
 C 2.229985 0.169674 0.010838
 N 0.972405 0.276597 -0.185000
 C 3.135816 0.386314 -1.163999
 C 2.623279 0.682083 -2.361005
 C 4.603803 0.293563 -1.092922
 O 5.272054 0.039666 -0.117427
 H 2.330362 -0.283170 2.006753
 H 3.871997 -0.179379 1.191290
 H 0.445018 0.112084 0.669506
 H 1.550863 0.766572 -2.487246
 H 3.272085 0.840201 -3.216098
 H 5.098549 0.485870 -2.066482