11
charge = 0
 N 1.582907 -0.024790 -1.052273
 C 1.993464 -0.105212 0.234194
 N 2.245427 -1.119555 0.961653
 C 2.181521 1.263076 0.854020
 O 1.909267 2.265625 0.233730
 C 2.687145 1.306285 2.202243
 C 3.108778 1.420897 3.320605
 H 1.282097 -0.841430 -1.550387
 H 1.342861 0.887104 -1.405397
 H 2.086144 -1.996750 0.467585
 H 3.483110 1.507151 4.314108