15
charge = 0
 N 1.261172 -1.667825 -1.755598
 C 2.498473 -2.056054 -1.298574
 N 2.852714 -3.164782 -0.797945
 O 3.373355 -1.049819 -1.493312
 C 4.715844 -1.330098 -1.195023
 C 5.607404 -1.756048 -2.305640
 C 5.694296 -0.359760 -1.743914
 H 0.473934 -2.160212 -1.372123
 H 1.130132 -0.675012 -1.858669
 H 2.070670 -3.805954 -0.724851
 H 4.859974 -1.758296 -0.211689
 H 5.150913 -1.865758 -3.281085
 H 6.392923 -2.466934 -2.083746
 H 5.298504 0.442379 -2.354114
 H 6.544594 -0.090128 -1.130518