16
charge = 0
 N 2.936313 -1.629138 0.195685
 C 2.369097 -0.406731 0.061950
 O 1.205460 -0.255706 -0.246179
 C 3.276331 0.779494 0.343287
 C 4.758540 0.536443 0.286259
 C 5.686107 1.424246 1.053175
 C 5.493045 0.004149 1.488058
 H 2.359354 -2.440973 0.061990
 H 3.890792 -1.731685 0.488707
 H 2.997761 1.148863 1.337135
 H 2.977706 1.559697 -0.361059
 H 5.127166 0.199713 -0.678240
 H 5.243363 2.202274 1.663582
 H 6.630792 1.694766 0.599012
 H 4.919754 -0.170610 2.391633
 H 6.310329 -0.690382 1.334094