14
charge = 0
 N 2.391136 -1.579422 0.264394
 C 2.443687 -0.443070 -0.467379
 O 1.775239 -0.261884 -1.462780
 C 3.391920 0.616579 0.075983
 C 4.750502 0.096129 0.442252
 C 5.467275 0.566446 1.622548
 O 4.830929 -0.702530 1.622295
 H 1.782322 -2.317933 -0.042225
 H 2.979414 -1.710182 1.069932
 H 2.926796 1.069054 0.957907
 H 3.476966 1.386827 -0.691778
 H 5.341908 -0.297638 -0.382960
 H 5.004573 1.317240 2.258537
 H 6.553221 0.535085 1.644195