12
charge = 0
 N 1.125649 0.959017 -0.211150
 C 2.388170 0.463948 -0.151554
 O 2.917069 -0.090811 -1.094099
 C 3.063133 0.656939 1.157191
 C 4.309114 0.208563 1.327683
 C 5.049308 0.334343 2.522992
 C 5.708783 0.424113 3.525789
 H 0.614038 0.860600 -1.070386
 H 0.692095 1.416812 0.568489
 H 2.538374 1.160209 1.962793
 H 4.783138 -0.287871 0.483324
 H 6.287229 0.506437 4.415618