12
charge = 0
 N 1.059105 -0.154404 0.130366
 C 2.396268 0.068876 0.098110
 O 2.983617 0.741287 0.918348
 C 3.076457 -0.571890 -1.013694
 C 3.699757 -1.077658 -1.914702
 C 4.416645 -1.677891 -2.977572
 C 5.733571 -1.549868 -3.141120
 H 0.523348 0.260191 0.872940
 H 0.604265 -0.715121 -0.565981
 H 3.837128 -2.268794 -3.681916
 H 6.333253 -0.966731 -2.452699
 H 6.237697 -2.029288 -3.971171