16
charge = 0
 N 0.724905 0.282917 -0.069390
 C 1.957377 0.342418 0.494173
 O 2.210376 1.088395 1.416173
 C 2.980619 -0.610740 -0.092171
 C 4.395710 -0.049640 -0.024183
 C 5.423691 -1.062437 -0.400003
 C 6.280406 -0.947136 -1.405136
 H -0.006863 0.853502 0.317403
 H 0.514748 -0.336829 -0.828959
 H 2.721090 -0.880323 -1.120266
 H 2.920595 -1.534604 0.496136
 H 4.563144 0.300649 0.999305
 H 4.479528 0.827144 -0.672729
 H 5.452479 -1.961835 0.214660
 H 6.288354 -0.068448 -2.043234
 H 7.009239 -1.719242 -1.622679