11
charge = 0
 N 1.330337 -0.856108 0.259799
 C 2.443994 -0.123345 0.009766
 O 2.866383 0.734586 0.747241
 C 3.114684 -0.411100 -1.309267
 C 2.449128 -0.722618 -2.422146
 C 4.532184 -0.235556 -1.335092
 N 5.677058 -0.125428 -1.371089
 H 0.888394 -0.718313 1.153379
 H 1.155872 -1.715944 -0.227750
 H 1.370181 -0.819139 -2.416004
 H 2.962984 -0.854824 -3.365937