12
charge = 0
 N 2.795121 0.553999 0.787892
 C 2.209953 0.178846 -0.362332
 O 1.009266 0.073855 -0.513914
 C 3.160679 -0.112329 -1.499289
 C 2.649027 -0.488204 -2.672415
 C 4.626050 -0.009047 -1.400462
 O 5.257952 0.314925 -0.422376
 H 2.204612 0.759590 1.574887
 H 3.801734 0.621438 0.846134
 H 1.575446 -0.577715 -2.790662
 H 3.291412 -0.708407 -3.518673
 H 5.152759 -0.263651 -2.342491