12
charge = 0
 N 3.369377 -1.969671 -0.546733
 C 3.924412 -0.760136 -0.709327
 O 3.905191 -0.097482 -1.725253
 C 4.625324 -0.259815 0.570151
 O 4.622482 -0.950022 1.564544
 C 5.259222 1.064544 0.468031
 C 5.890880 1.593538 1.511324
 H 2.882356 -2.405906 -1.308913
 H 3.452801 -2.422803 0.347935
 H 5.179521 1.566849 -0.487853
 H 5.945345 1.052666 2.450748
 H 6.363791 2.566737 1.456356