10
charge = 0
 N 1.211134 0.509253 0.060107
 C 2.142174 -0.441266 0.231024
 O 2.569298 -0.853586 1.284024
 C 2.648277 -0.993242 -1.116194
 O 2.217910 -0.576477 -2.164496
 C 3.651118 -2.020605 -1.025611
 C 4.488805 -2.879463 -0.973243
 H 0.798945 0.953112 0.861245
 H 0.938874 0.767232 -0.873536
 H 5.232074 -3.641359 -0.922698