15
charge = 0
 N 2.186348 -0.523972 -2.254767
 C 2.073216 -0.207436 -0.927874
 O 1.009850 0.038689 -0.394423
 N 3.257241 -0.203046 -0.226942
 C 4.477108 -0.758232 -0.698648
 C 5.343724 0.063892 -1.615811
 C 5.748231 -0.160780 -0.192986
 H 1.368904 -0.326072 -2.804077
 H 3.080642 -0.453644 -2.708080
 H 3.110964 -0.161003 0.768738
 H 4.482238 -1.833133 -0.870315
 H 4.983090 1.051788 -1.874347
 H 5.893091 -0.449447 -2.395400
 H 5.659884 0.678689 0.485081
 H 6.573788 -0.829591 0.012363