14
charge = 0
 N 1.186634 0.534598 0.941695
 C 2.460128 0.825958 1.306827
 O 2.806764 1.815984 1.897014
 O 3.287681 -0.172053 0.920646
 C 4.628028 -0.021907 1.317712
 C 5.079482 -0.725384 2.548060
 C 5.464479 -1.238874 1.184344
 H 0.511316 1.271847 1.019805
 H 1.012182 -0.223269 0.307740
 H 5.040682 0.951475 1.086539
 H 4.330495 -1.287491 3.091215
 H 5.828374 -0.244003 3.163710
 H 4.968495 -2.136846 0.838262
 H 6.485950 -1.121526 0.845930