14
charge = 0
 N 1.577256 2.281538 1.213115
 C 2.810299 2.161305 0.665443
 O 3.184630 2.728085 -0.331655
 O 3.553039 1.295368 1.383060
 C 4.876221 1.055205 0.887933
 C 5.843782 2.080376 1.370776
 C 6.911194 1.792571 2.100401
 H 0.978915 2.998876 0.849367
 H 1.389031 1.889162 2.116788
 H 4.841678 1.044716 -0.204213
 H 5.143373 0.063748 1.255119
 H 5.638889 3.103427 1.067406
 H 7.128560 0.774055 2.408295
 H 7.612232 2.558790 2.410276