13
charge = 0
 N 1.192977 0.428538 -0.062409
 N 2.526541 0.109916 0.093365
 C 3.057940 0.454606 1.179484
 C 2.485191 1.136340 2.392812
 C 3.698756 1.245055 3.261664
 C 4.717457 0.706196 2.603800
 O 4.402036 0.219693 1.367550
 H 0.813051 -0.156573 -0.791614
 H 0.643557 0.311525 0.785267
 H 1.679070 0.542452 2.846617
 H 2.041937 2.101438 2.115539
 H 3.739080 1.681855 4.246741
 H 5.754208 0.587970 2.880974