15
charge = 0
 N 0.929779 1.224863 -1.154805
 N 2.273955 1.440701 -1.111523
 C 3.051613 0.443681 -1.211811
 C 4.507306 0.571630 -1.036925
 C 5.142522 1.915179 -0.802105
 C 5.071858 0.924518 0.309070
 O 6.216788 0.236863 0.696915
 H 0.455983 2.042871 -1.504539
 H 0.648520 0.384154 -1.653176
 H 2.657963 -0.565342 -1.394132
 H 5.106540 -0.150362 -1.580668
 H 4.480115 2.770665 -0.771151
 H 6.112762 2.074292 -1.256394
 H 4.343224 1.104943 1.096667
 H 6.789663 0.849154 1.166967