15
charge = 0
 N 0.744744 -0.580720 -1.635436
 N 2.063041 -0.858032 -1.728884
 C 2.860554 -0.339572 -0.888170
 C 4.320254 -0.548037 -1.016562
 C 5.244572 0.682452 -0.991375
 C 5.962091 -0.058104 0.135048
 O 4.922992 -1.045530 0.199387
 H 0.188273 -1.304240 -2.060525
 H 0.411451 -0.308772 -0.715228
 H 2.508493 0.276055 -0.049543
 H 4.507077 -1.222654 -1.859167
 H 4.738382 1.592175 -0.666695
 H 5.806704 0.883978 -1.901701
 H 6.082707 0.471893 1.083789
 H 6.921865 -0.503301 -0.151449