15
charge = 0
 N 0.878686 -0.034884 0.255875
 N 2.231950 -0.093250 0.219484
 C 2.894067 0.982848 0.340090
 C 4.372500 0.969831 0.386538
 C 5.139645 1.955366 -0.513962
 O 5.879315 2.476390 0.595107
 C 5.073583 1.739675 1.521645
 H 0.471737 -0.818869 -0.228122
 H 0.468299 0.852113 -0.021996
 H 2.389573 1.956865 0.423895
 H 4.723409 -0.057184 0.290283
 H 4.508961 2.723622 -0.978957
 H 5.788904 1.514373 -1.275440
 H 4.409457 2.397576 2.095742
 H 5.675722 1.144028 2.213117