15
charge = 0
 N 0.693031 1.055029 -0.850959
 N 2.026271 1.305221 -0.772988
 C 2.830118 0.487708 -1.314822
 C 4.305524 0.673269 -1.197168
 C 4.967509 0.835073 -2.537701
 C 6.290367 0.290292 -2.819817
 O 5.123190 -0.345495 -3.314791
 H 0.166083 1.909946 -0.772596
 H 0.401907 0.492895 -1.645860
 H 2.470774 -0.378673 -1.885209
 H 4.752599 -0.193944 -0.697039
 H 4.496012 1.555851 -0.580794
 H 4.640622 1.698013 -3.117317
 H 6.817347 -0.250862 -2.037022
 H 6.920127 0.758055 -3.572427