17
charge = 0
 N 0.999731 -0.222411 -1.546544
 N 2.361451 -0.242042 -1.503446
 C 2.963671 0.671691 -0.860394
 C 4.451803 0.766059 -0.858624
 C 4.997957 1.995512 -1.589404
 C 4.788468 1.970361 -3.095212
 O 3.443106 2.118327 -3.489512
 H 0.638797 -1.151280 -1.695974
 H 0.549519 0.240950 -0.762076
 H 2.401619 1.436671 -0.306338
 H 4.853632 -0.146281 -1.309094
 H 4.797650 0.794728 0.181428
 H 6.074055 2.065368 -1.395058
 H 4.544027 2.907484 -1.186252
 H 5.221170 1.048267 -3.510976
 H 5.325470 2.808292 -3.547684
 H 2.962054 1.326293 -3.229748