13
charge = 0
 N 1.067129 -0.552994 -0.138988
 N 2.424454 -0.452296 -0.145605
 C 3.023893 -0.534219 0.986459
 C 2.293077 -0.751997 2.291771
 O 1.576542 -1.964755 2.310900
 C 4.442845 -0.450923 1.004150
 C 5.639022 -0.371764 1.101744
 H 0.593496 -0.100824 0.639913
 H 0.698590 -0.241986 -1.024295
 H 1.628866 0.109222 2.484906
 H 3.007687 -0.787939 3.112916
 H 1.133705 -2.068459 1.460331
 H 6.699494 -0.306987 1.164699