15
charge = 0
 N 0.752649 0.253364 1.416308
 N 2.105262 0.308361 1.319927
 C 2.778956 -0.751537 1.171683
 C 4.280799 -0.658998 1.158060
 O 4.703766 0.671084 1.279856
 C 4.853985 -1.501500 2.262314
 C 5.531319 -2.622743 2.068110
 H 0.339049 1.124433 1.124148
 H 0.321656 -0.547096 0.964566
 H 2.323960 -1.741906 1.069667
 H 4.633553 -1.070262 0.198739
 H 3.895821 1.198804 1.371228
 H 4.671083 -1.125194 3.266137
 H 5.732947 -2.993901 1.067561
 H 5.916005 -3.207198 2.895686