13
charge = 0
 N 0.924192 0.882426 -0.050023
 N 2.273873 0.864631 -0.079870
 C 2.862807 0.130092 -0.927193
 C 4.361443 0.142172 -1.001597
 O 4.915742 -1.111389 -0.628187
 C 4.810575 0.544301 -2.333324
 C 5.157728 0.836882 -3.444953
 H 0.582925 1.165914 0.853760
 H 0.458076 0.056704 -0.413230
 H 2.325290 -0.533496 -1.615820
 H 4.712806 0.868661 -0.263724
 H 4.950376 -1.668182 -1.411327
 H 5.473577 1.110493 -4.424102