15
charge = 0
 N 2.358258 -0.698144 2.949258
 N 3.128736 -1.206990 1.963048
 C 2.844140 -0.931552 0.758558
 C 3.738352 -1.386610 -0.335976
 O 2.964989 -2.130150 -1.263589
 C 3.605993 -2.578057 -2.357441
 C 4.889300 -2.435030 -2.675703
 H 2.412654 -1.262624 3.781290
 H 1.404940 -0.460366 2.691033
 H 1.957990 -0.346133 0.484945
 H 4.543999 -1.999567 0.080639
 H 4.186350 -0.528855 -0.858060
 H 2.914701 -3.110476 -3.002408
 H 5.607393 -1.917733 -2.054648
 H 5.242905 -2.861724 -3.603864