11
charge = 0
 O -1.134984 0.730898 0.755224
 C -1.084133 -0.364860 -0.137884
 C -0.113894 -1.404749 0.208255
 N 1.137230 -1.214713 0.393822
 N 1.712879 0.013632 0.081297
 C 0.993861 0.959026 -0.393152
 C -0.467703 0.950505 -0.472548
 H -2.041023 -0.649615 -0.565382
 H -0.458725 -2.431540 0.315583
 H 1.536204 1.825323 -0.767478
 H -0.968911 1.638104 -1.147438