11
charge = 0
 O 0.740552 -1.018908 -0.773169
 C -0.402970 -1.446149 -0.150067
 C -1.377227 -0.603480 0.197188
 C -1.297037 0.808480 -0.120903
 N -0.244133 1.539340 -0.172131
 N 0.930649 1.056553 0.316993
 C 1.375143 -0.082171 0.033103
 H -0.447607 -2.520102 0.003775
 H -2.286958 -1.007274 0.625961
 H -2.220707 1.321405 -0.383234
 H 2.336186 -0.409095 0.417894