16
charge = 0
 O 1.621382 -0.485316 -0.907768
 C 2.767017 -0.162061 -0.186686
 C 3.527977 -1.227419 0.532618
 C 4.105446 -0.570932 -0.697703
 C 5.028854 0.623280 -0.494021
 N 4.173820 1.795537 -0.273437
 C 2.939587 1.274439 0.316602
 H 0.933127 -0.734538 -0.284952
 H 3.179800 -2.247879 0.418858
 H 3.965955 -0.993437 1.498381
 H 4.175519 -1.170118 -1.597120
 H 5.684984 0.790012 -1.350087
 H 5.670717 0.473671 0.381875
 H 3.941965 2.183987 -1.179842
 H 2.082313 1.884884 0.028638
 H 3.019748 1.299600 1.409554