16
charge = 0
 O 0.682824 0.045299 -0.268123
 C 2.023311 0.023762 0.101412
 C 2.982043 -0.967747 -0.497267
 C 2.515303 -1.763424 -1.701451
 C 2.647840 -0.761440 -2.860050
 N 2.554518 0.579340 -2.279762
 C 3.014435 0.485132 -0.920099
 H 0.246219 -0.721624 0.111889
 H 2.210774 0.319802 1.131673
 H 3.749105 -1.378946 0.147571
 H 1.479284 -2.097730 -1.588550
 H 3.131616 -2.653015 -1.847984
 H 1.892083 -0.892214 -3.637968
 H 3.629234 -0.877461 -3.333457
 H 1.587420 0.880276 -2.282983
 H 3.816692 1.147980 -0.614250