16
charge = 0
 O 1.028808 -0.003331 0.035259
 C 2.426631 0.082610 -0.015942
 C 3.010363 1.125665 -1.010802
 C 2.614419 0.128953 -2.126103
 C 3.026029 -0.892746 -1.042010
 N 4.457005 -0.659212 -0.820646
 C 4.496828 0.829091 -0.846088
 H 0.696172 0.765108 0.505273
 H 2.875941 0.049500 0.983998
 H 2.696717 2.170007 -1.008867
 H 3.193220 0.140673 -3.053240
 H 1.545560 0.132316 -2.327742
 H 2.743216 -1.943970 -1.064276
 H 4.991841 -1.039169 -1.591323
 H 5.095085 1.222248 -1.673287
 H 4.905284 1.223556 0.089206