12
charge = 0
 O 1.170079 -0.169463 -0.898695
 C 2.186935 0.080838 -0.364110
 C 3.317307 -0.629004 0.487266
 N 3.336557 0.665820 1.205213
 C 3.159407 1.305709 -0.118253
 C 4.294938 0.774157 -0.957362
 C 4.399438 -0.505821 -0.556718
 H 3.176894 -1.546263 1.052051
 H 4.264876 0.860325 1.584609
 H 2.859021 2.348523 -0.166926
 H 4.783151 1.274162 -1.781479
 H 4.993788 -1.305974 -0.973885