14
charge = 0
 O 0.950036 -0.192320 -0.409733
 C 2.218914 0.172146 0.016655
 C 3.499805 -0.542271 -0.540292
 N 4.172543 0.737781 -0.182651
 C 2.920966 1.344961 -0.718819
 C 2.871240 0.848709 -2.166602
 C 3.262940 -0.417837 -2.044855
 H 0.509739 -0.661369 0.301248
 H 2.277115 0.291443 1.101892
 H 3.898347 -1.468747 -0.128379
 H 4.961308 0.921369 -0.799379
 H 2.713332 2.391068 -0.498162
 H 2.536588 1.396036 -3.035461
 H 3.335126 -1.198759 -2.787663