16
charge = 0
 O 0.924579 0.472028 -0.251472
 C 2.271962 0.190110 0.001457
 C 3.027439 -0.590365 -1.028388
 C 3.260287 0.889223 -0.869041
 C 2.605803 0.005619 1.447161
 C 1.900765 0.782038 2.480148
 N 1.675976 -0.660277 2.348425
 H 0.485578 -0.347147 -0.493838
 H 2.483576 -0.911216 -1.909240
 H 3.793308 -1.277323 -0.689182
 H 2.849771 1.540180 -1.629864
 H 4.190837 1.222443 -0.425893
 H 3.646472 -0.256998 1.620775
 H 1.114929 1.448591 2.141912
 H 2.421162 1.086758 3.381417
 H 0.791257 -0.801262 1.869813