14
charge = 0
 O 0.737903 0.603947 -0.361522
 C 2.067974 0.504770 0.022724
 C 2.917825 -0.599863 -0.531063
 C 3.074814 0.813130 -1.023899
 C 4.326962 1.584182 -0.685319
 C 4.131853 3.027824 -0.722805
 N 3.974734 4.165885 -0.757622
 H 0.234367 -0.065412 0.109913
 H 2.285152 0.843967 1.034599
 H 2.438538 -1.302621 -1.200945
 H 3.695215 -1.019002 0.097745
 H 2.654979 1.019246 -2.001943
 H 5.133225 1.330871 -1.381103
 H 4.681360 1.315077 0.314541