14
charge = 0
 O 0.897707 0.401038 -0.016304
 C 2.212652 -0.030952 0.079906
 C 2.806544 -0.867448 -1.007812
 C 3.171176 0.587321 -0.880365
 N 4.479351 0.929111 -0.441009
 C 4.741821 1.867625 0.502431
 O 5.847199 2.254135 0.797007
 H 0.318275 -0.346857 0.152850
 H 2.581850 -0.201465 1.088476
 H 2.168772 -1.134490 -1.840704
 H 3.553857 -1.600846 -0.730908
 H 2.711233 1.245680 -1.612893
 H 5.274273 0.601314 -0.969749
 H 3.821890 2.237834 0.992566