15
charge = 0
 O 0.538861 -0.202623 -0.313381
 C 1.894125 -0.385349 -0.068201
 C 2.749307 -1.039865 -1.110389
 C 2.819739 0.444456 -0.880746
 N 3.997484 0.943064 -0.257588
 N 3.848458 2.069488 0.467324
 C 4.862120 2.803874 0.673444
 H 0.100703 -1.053502 -0.228778
 H 2.174763 -0.529586 0.971555
 H 2.263064 -1.370522 -2.019405
 H 3.586679 -1.640060 -0.776357
 H 2.336305 1.072094 -1.627460
 H 4.830245 0.906423 -0.840508
 H 4.736859 3.679061 1.299178
 H 5.853000 2.588158 0.258904