14
charge = 0
 O 0.950698 0.302760 0.318295
 C 2.248463 -0.182366 0.213824
 C 2.676399 -0.953404 -1.004400
 C 3.113559 0.463897 -0.794338
 O 4.421184 0.724656 -0.386402
 N 5.274155 0.680322 -1.469716
 C 6.462763 0.952674 -1.137290
 H 0.366052 -0.440388 0.489909
 H 2.731465 -0.449346 1.151390
 H 1.941915 -1.125831 -1.781402
 H 3.416771 -1.732049 -0.870887
 H 2.666732 1.230490 -1.418953
 H 7.200485 0.943006 -1.930388
 H 6.750479 1.188780 -0.113643