16
charge = 0
 O 1.094773 0.063968 0.002680
 C 2.503859 -0.029808 -0.057435
 C 3.102535 -1.160701 0.818449
 C 3.843129 -0.273584 1.829755
 C 4.560151 0.724481 0.901998
 C 3.103549 1.163965 0.690483
 N 2.893796 0.831819 2.121208
 H 0.717974 -0.741626 -0.359040
 H 2.839667 -0.074937 -1.100845
 H 3.763964 -1.834461 0.268348
 H 2.313771 -1.753298 1.289506
 H 4.337831 -0.755067 2.673380
 H 5.119937 0.333222 0.051036
 H 5.129372 1.469398 1.454497
 H 2.820204 2.156751 0.342532
 H 1.943398 0.515276 2.306557