16
charge = 0
 O 1.208628 0.036816 0.798039
 C 2.516662 0.018368 0.262775
 C 2.903115 -1.375817 -0.247683
 C 2.380345 -1.373605 -1.670727
 C 3.210497 -0.764474 -2.723340
 N 2.154898 0.022911 -2.102553
 C 2.622027 0.876304 -0.995692
 H 0.591172 -0.131424 0.079003
 H 3.166712 0.369186 1.067212
 H 2.446330 -2.149190 0.370125
 H 3.987535 -1.514486 -0.214172
 H 1.605929 -2.082089 -1.946910
 H 3.049438 -1.014631 -3.767168
 H 4.239511 -0.520435 -2.466844
 H 1.986865 1.760767 -0.918086
 H 3.652745 1.211798 -1.156579