14
charge = 0
 O 1.972472 0.160141 1.637258
 C 2.581364 0.009512 0.615820
 C 2.990717 -1.319589 -0.002776
 C 3.944392 -0.937632 -1.098803
 C 5.110835 -0.120745 -0.714526
 N 3.948006 0.526355 -1.304902
 C 3.063806 1.116196 -0.313908
 H 2.089264 -1.803014 -0.393942
 H 3.407986 -1.979100 0.760370
 H 3.980373 -1.535982 -2.002172
 H 6.001916 -0.115287 -1.332131
 H 5.293217 0.023470 0.349443
 H 2.189393 1.552392 -0.809943
 H 3.549470 1.914282 0.252214