14
charge = 0
 O 1.896296 0.407031 1.042502
 C 2.736213 0.017860 0.288121
 C 2.795119 -1.363882 -0.354402
 C 4.126845 -1.423341 -1.094503
 C 4.616789 0.011885 -1.087721
 C 3.737638 1.068650 -1.601041
 N 3.834475 0.820187 -0.147571
 H 1.925694 -1.457008 -1.010260
 H 2.682731 -2.127472 0.415597
 H 4.044211 -1.827453 -2.105447
 H 4.842807 -2.045711 -0.554001
 H 5.685860 0.190576 -1.059912
 H 2.816373 0.777180 -2.098611
 H 4.143659 2.022609 -1.915640