16
charge = 0
 O 1.109302 0.362830 0.120851
 C 2.467601 0.023132 -0.125579
 C 2.676874 -1.474855 -0.390136
 C 2.655101 -1.671813 -1.914262
 C 2.995033 -0.309348 -2.484703
 N 1.944059 0.692493 -2.496926
 C 2.905723 0.709196 -1.407972
 H 0.816006 -0.118519 0.898097
 H 3.085860 0.363232 0.714183
 H 1.947626 -2.091520 0.144092
 H 3.665684 -1.751592 -0.012813
 H 1.676574 -2.005269 -2.273932
 H 3.378138 -2.427475 -2.228953
 H 3.711520 -0.232368 -3.296047
 H 1.063448 0.311840 -2.161556
 H 3.543661 1.584535 -1.350455