18
charge = 0
 O 1.099847 0.042312 0.094751
 C 2.516969 -0.047599 0.044652
 C 2.983178 -1.452470 -0.321564
 C 2.588861 -1.818367 -1.746770
 C 3.049598 -0.737290 -2.719500
 N 2.602387 0.598852 -2.363506
 C 2.975643 0.952288 -1.008797
 H 0.770860 -0.642929 0.681846
 H 2.942544 0.240411 1.017430
 H 2.582995 -2.178584 0.396197
 H 4.074483 -1.488539 -0.217444
 H 1.500262 -1.917917 -1.812320
 H 3.015526 -2.787987 -2.022826
 H 2.710415 -0.960852 -3.734659
 H 4.147274 -0.721840 -2.752453
 H 1.593423 0.649663 -2.445588
 H 2.564309 1.936743 -0.771920
 H 4.068035 1.034203 -0.957918