10
charge = 0
 O 1.088922 -0.042985 -0.238721
 C 2.266259 0.079669 -0.069693
 O 3.027620 -1.072674 0.035908
 N 4.376139 -1.090408 0.228970
 C 4.975737 0.039590 0.318216
 C 4.322109 1.309936 0.228406
 C 2.995985 1.329568 0.038543
 H 6.046083 -0.039853 0.471267
 H 4.904290 2.220199 0.314510
 H 2.414056 2.238470 -0.042085