12
charge = 0
 O 1.046553 -0.162238 0.473911
 C 2.181016 -0.071131 0.116928
 C 2.857339 1.194424 -0.317781
 C 4.312219 1.192153 0.114425
 C 4.899774 -0.113112 -0.286388
 N 4.272265 -1.211994 -0.351630
 O 2.934664 -1.208096 0.076170
 H 2.288250 2.031897 0.082081
 H 2.792503 1.237967 -1.410596
 H 4.398226 1.308983 1.201640
 H 4.868696 2.015988 -0.335396
 H 5.941996 -0.194042 -0.583374