12
charge = 0
 O 1.391425 -0.177766 0.708516
 C 2.464871 -0.039591 0.189655
 C 3.198282 1.255004 -0.101683
 C 4.506615 0.839889 -0.766716
 C 4.466648 -0.674581 -0.826116
 O 5.297716 -1.416777 -1.272284
 N 3.269653 -1.069383 -0.259417
 H 3.335318 1.792079 0.838270
 H 2.562440 1.876607 -0.734142
 H 5.396135 1.139697 -0.210335
 H 4.622457 1.221319 -1.782507
 H 3.002650 -2.039195 -0.179340