12
charge = 0
 O 1.376031 -0.168287 1.028312
 C 2.404534 -0.092992 0.421991
 C 3.339394 1.037163 -0.026713
 C 4.209234 -0.088415 -0.655246
 N 3.218135 -1.032484 -0.146130
 C 4.373837 -0.061125 -2.097581
 C 4.522479 -0.041274 -3.288269
 H 3.809556 1.590730 0.784819
 H 2.893770 1.720238 -0.747631
 H 5.186504 -0.197768 -0.174698
 H 3.119554 -2.028077 -0.270546
 H 4.648982 -0.022009 -4.345218