11
charge = 0
 O 1.262663 -0.023067 0.920295
 C 2.313719 0.055282 0.361284
 C 3.276629 1.185743 -0.027176
 C 4.173518 0.056877 -0.606148
 N 3.150096 -0.883768 -0.185485
 C 4.418857 0.108657 -2.043226
 N 4.624986 0.146232 -3.173385
 H 3.707165 1.728732 0.812426
 H 2.876748 1.877974 -0.766041
 H 5.130202 -0.062459 -0.089638
 H 3.078327 -1.884094 -0.290905