12
charge = 0
 O 0.940700 -0.063792 -0.301384
 C 2.102359 0.103048 -0.022162
 C 2.912375 1.328916 -0.118401
 C 4.137088 1.058555 0.348684
 N 4.290987 -0.243049 0.881253
 C 4.287606 -1.252382 -0.178918
 C 3.041147 -0.919079 0.564734
 H 2.564780 2.258168 -0.545045
 H 5.009676 1.700293 0.341275
 H 4.793381 -2.183104 0.053028
 H 4.383424 -0.895508 -1.199480
 H 2.654668 -1.626356 1.288317