18
charge = 0
 O 1.072107 0.095469 0.030668
 C 2.487101 0.006943 -0.066891
 C 2.937708 -1.391821 -0.475199
 C 2.523692 -1.715673 -1.900342
 N 3.061478 -0.707276 -2.795662
 C 2.518728 0.610011 -2.506195
 C 2.925463 1.028802 -1.103068
 H 0.767725 -0.589202 0.631808
 H 2.937377 0.263955 0.902707
 H 2.525990 -2.133800 0.218985
 H 4.028441 -1.445597 -0.397622
 H 1.422754 -1.777071 -1.949387
 H 2.920252 -2.692661 -2.189392
 H 2.870427 -0.958422 -3.756508
 H 1.419251 0.637256 -2.582755
 H 2.918273 1.321446 -3.233764
 H 2.490354 1.999972 -0.853499
 H 4.014589 1.123178 -1.059002