16
charge = 0
 O 1.026888 0.103380 0.256382
 C 2.215837 0.078948 0.053797
 C 2.995707 -1.208947 -0.057845
 C 3.954173 -1.175881 -1.245214
 N 4.781074 0.010858 -1.168740
 C 3.995437 1.221441 -1.292140
 C 3.039481 1.333893 -0.107613
 H 2.294609 -2.042029 -0.121511
 H 3.584267 -1.316535 0.860819
 H 3.363793 -1.218156 -2.178161
 H 4.595333 -2.060443 -1.227770
 H 5.505454 -0.015406 -1.873622
 H 3.406228 1.247467 -2.226421
 H 4.666661 2.083426 -1.308890
 H 2.367424 2.187478 -0.204287
 H 3.632025 1.457015 0.806528