14
charge = 0
 O 0.856545 -0.119238 -0.455668
 C 2.047483 -0.106425 -0.212802
 C 2.761956 1.187804 0.151015
 C 4.222382 1.170644 -0.256602
 N 4.860628 -0.024296 0.256137
 C 4.199724 -1.197957 0.123072
 C 2.877589 -1.292836 -0.156153
 H 2.677083 1.303895 1.238332
 H 2.235935 2.023111 -0.311993
 H 4.746961 2.048439 0.125486
 H 4.292949 1.185739 -1.354928
 H 5.864747 -0.057514 0.239262
 H 4.803735 -2.088203 0.269534
 H 2.406602 -2.260663 -0.260090