12
charge = 0
 O 0.838823 -0.218598 -0.040674
 C 2.169977 -0.009470 0.017107
 C 2.909544 1.142055 0.001802
 O 2.343864 2.386543 -0.133737
 C 4.277688 0.765985 0.069044
 C 4.315287 -0.601266 0.129572
 N 3.022064 -1.062321 0.089132
 H 0.422769 0.645351 -0.131141
 H 2.625636 2.939160 0.599930
 H 5.130264 1.427173 0.065036
 H 5.147258 -1.281453 0.195458
 H 2.732017 -2.022669 0.102551