11
charge = 0
 O 1.031073 -0.054447 0.216154
 C 2.246933 -0.002335 0.110882
 C 3.026962 1.212039 0.008483
 C 4.371426 1.126783 -0.103786
 N 4.992839 -0.072791 -0.121438
 N 4.366464 -1.241526 -0.033454
 C 3.079714 -1.211831 0.075520
 H 2.527882 2.171735 0.022784
 H 5.023689 1.988727 -0.184897
 H 5.992361 -0.140671 -0.204772
 H 2.584757 -2.175063 0.146225