12
charge = 0
 O 1.013787 0.288082 -0.345308
 N 2.367586 0.202295 -0.193098
 C 3.199660 1.264210 -0.201557
 C 4.482578 0.769836 -0.090276
 C 4.380155 -0.638207 -0.023805
 O 5.384825 -1.545572 0.089195
 C 3.050010 -0.979288 -0.094813
 H 0.649360 0.288950 0.549231
 H 2.821069 2.268472 -0.291744
 H 5.385881 1.360674 -0.065770
 H 6.222105 -1.076680 0.088894
 H 2.547473 -1.930573 -0.100539