10
charge = 0
 O 1.030810 -0.154655 0.201299
 C 2.229292 -0.095270 0.091235
 C 2.976538 1.157850 0.003347
 C 4.303797 1.130033 -0.117132
 O 4.998839 -0.029494 -0.162126
 C 4.271654 -1.163514 -0.077934
 N 3.018094 -1.267398 0.037905
 H 2.441651 2.097038 0.037222
 H 4.953883 1.991904 -0.189987
 H 4.921842 -2.032697 -0.123438