12
charge = 0
 O 1.057583 -0.113314 -0.481130
 C 2.208968 0.015028 -0.144325
 C 2.859043 1.317699 0.224992
 C 4.328962 1.190895 -0.091047
 O 4.926531 0.082752 0.582081
 N 4.317058 -1.114092 0.437475
 C 3.104961 -1.149094 0.023633
 H 2.704241 1.483437 1.297503
 H 2.392132 2.142376 -0.315548
 H 4.909833 2.056930 0.224159
 H 4.474332 1.038579 -1.169276
 H 2.681758 -2.141595 -0.092126