16
charge = 0
 O 1.025345 0.596175 0.050526
 C 2.379767 0.279752 0.135946
 C 3.223110 0.961274 1.247811
 N 3.898103 -0.322921 1.464206
 C 2.780337 -1.042882 0.844638
 C 3.012899 0.409858 -1.206386
 C 2.383596 0.771456 -2.313891
 H 0.637303 0.506167 0.924366
 H 2.566485 1.275205 2.073597
 H 3.871891 1.794429 0.966879
 H 4.108401 -0.562349 2.423503
 H 1.987843 -1.344061 1.546678
 H 3.055958 -1.898817 0.223837
 H 4.074533 0.177689 -1.217734
 H 1.325810 1.003974 -2.308644
 H 2.913798 0.843760 -3.256124