16
charge = 0
 O 1.018871 -0.166789 0.439248
 C 2.375627 0.084201 0.224629
 C 3.051878 1.241775 0.977271
 N 4.193534 0.344050 1.213501
 C 3.336190 -0.838928 0.999935
 C 3.965480 -1.991367 0.308423
 C 3.779181 -3.260345 0.645348
 H 0.513298 0.159537 -0.307463
 H 2.625700 0.097463 -0.841227
 H 2.471263 1.487932 1.875734
 H 3.287847 2.158055 0.429515
 H 4.628286 0.405874 2.124851
 H 2.815279 -1.174180 1.908809
 H 4.605959 -1.734872 -0.533196
 H 3.153276 -3.533163 1.489659
 H 4.238051 -4.071052 0.091263