11
charge = 0
 O 1.142745 -0.108778 0.432311
 C 2.296575 -0.101077 0.178066
 C 3.367718 0.947223 -0.072274
 N 4.261679 -0.133311 -0.528139
 C 3.374382 -1.202220 -0.046694
 C 3.083967 -2.269836 -0.985937
 N 2.835167 -3.115811 -1.723284
 H 3.656941 1.452464 0.858005
 H 3.133142 1.699010 -0.829970
 H 5.186941 -0.140135 -0.123206
 H 3.646843 -1.643110 0.922732