16
charge = 0
 O 1.022907 0.275660 0.054283
 C 2.409648 0.012792 -0.100774
 C 2.709388 -1.460124 -0.413695
 N 2.689310 -1.604569 -1.867265
 C 3.093663 -0.327924 -2.407925
 C 2.050420 0.733771 -2.546899
 C 2.935684 0.718349 -1.336453
 H 0.721647 -0.175105 0.847064
 H 2.953273 0.351775 0.790540
 H 2.005695 -2.149151 0.062520
 H 3.712585 -1.703476 -0.043416
 H 1.759564 -1.845156 -2.184104
 H 3.953913 -0.322752 -3.068810
 H 1.013518 0.452771 -2.410233
 H 2.221487 1.523266 -3.269460
 H 3.660568 1.512283 -1.213263