14
charge = 0
 O 1.652296 0.278919 1.070543
 C 2.580315 0.076227 0.334961
 C 2.942467 -1.270037 -0.279945
 N 4.337868 -1.150383 -0.674613
 C 4.681056 0.248157 -0.769775
 C 3.826150 1.142861 -1.596902
 C 3.611165 1.052397 -0.094906
 H 2.247189 -1.462081 -1.110006
 H 2.788971 -2.059260 0.459975
 H 4.540626 -1.643109 -1.533740
 H 5.727653 0.489223 -0.625189
 H 3.081430 0.702537 -2.250258
 H 4.243745 2.078322 -1.948065
 H 3.798380 1.919316 0.522931