16
charge = 0
 O 1.057079 -0.022965 0.596926
 C 2.406585 0.109854 0.182270
 C 2.625467 1.339373 -0.695869
 N 3.916481 1.342567 -1.353992
 C 4.104380 0.182087 -2.208327
 C 3.525081 -1.090746 -1.669896
 C 2.763409 -1.124372 -0.583415
 H 0.835391 0.731425 1.149089
 H 3.056252 0.182721 1.071656
 H 2.520084 2.258203 -0.109268
 H 1.839407 1.348615 -1.458840
 H 4.652504 1.373492 -0.659311
 H 5.175686 0.059535 -2.396741
 H 3.656155 0.385242 -3.191962
 H 3.729489 -2.004374 -2.222057
 H 2.345931 -2.056167 -0.214651