15
charge = 0
 O 1.380908 0.031954 0.998161
 C 2.348317 -0.021806 0.264300
 C 3.012768 -1.344306 -0.079088
 N 3.945246 -1.339866 -1.189450
 C 4.800512 -0.173123 -1.142336
 C 4.017686 1.126387 -1.204000
 N 2.921692 1.090914 -0.258761
 H 2.216344 -2.068544 -0.254757
 H 3.530315 -1.673302 0.830491
 H 3.440196 -1.363376 -2.067316
 H 5.519473 -0.208392 -1.964249
 H 5.372375 -0.213785 -0.208554
 H 3.640718 1.280542 -2.225091
 H 4.669420 1.974120 -0.968574
 H 2.435550 1.947471 -0.041475