10
charge = 0
 O 1.088909 0.151225 0.250063
 C 2.274074 0.064216 0.130439
 O 3.033145 1.215158 0.048794
 C 4.364455 1.141569 -0.085699
 C 5.009560 -0.032354 -0.146118
 N 4.329785 -1.222924 -0.072307
 C 3.054005 -1.173326 0.056664
 H 4.834020 2.115498 -0.137310
 H 6.084585 -0.073923 -0.254800
 H 2.483553 -2.095938 0.118294