14
charge = 0
 O 1.338867 0.123633 0.724284
 C 2.317131 0.042499 0.038688
 C 3.021617 -1.280898 -0.202184
 N 4.030949 -1.325488 -1.239080
 C 4.815971 -0.109724 -1.216295
 C 3.950384 1.112989 -1.399361
 O 2.850096 1.159549 -0.485249
 H 2.248087 -2.027557 -0.384095
 H 3.476860 -1.545042 0.760816
 H 3.594373 -1.437809 -2.146334
 H 5.576162 -0.138277 -2.001233
 H 5.343308 -0.059489 -0.256961
 H 3.540079 1.138189 -2.415806
 H 4.507926 2.038226 -1.236799