13
charge = 0
 O 0.871633 0.114121 -0.112798
 C 2.074176 0.076980 -0.093358
 C 2.860541 1.369205 -0.076793
 N 4.290619 1.200632 -0.053432
 N 4.950003 0.045370 -0.046737
 C 4.321604 -1.063406 -0.060488
 C 2.834825 -1.220776 -0.084747
 H 2.507645 1.929777 0.798523
 H 2.536833 1.934454 -0.960364
 H 4.882594 2.008612 -0.041642
 H 4.940778 -1.954034 -0.053433
 H 2.479822 -1.798449 0.777567
 H 2.507629 -1.793705 -0.961099