11
charge = 0
 O 1.120691 0.120322 0.512733
 C 2.246863 0.057288 0.130640
 N 3.164832 0.971172 -0.280032
 C 4.234076 0.029055 -0.571570
 C 3.287814 -1.094076 -0.073577
 C 2.939515 -2.123213 -1.022000
 N 2.669755 -2.934001 -1.791489
 H 3.102107 1.972809 -0.371917
 H 5.132456 0.161398 0.033984
 H 4.495122 -0.042960 -1.628452
 H 3.586190 -1.537292 0.878081