14
charge = 0
 O 1.528730 0.141095 0.809534
 C 2.523316 -0.054162 0.150028
 N 2.819840 -1.200667 -0.529536
 C 4.161148 -1.280051 -1.057150
 C 4.679207 0.135593 -0.895767
 C 3.888128 1.215965 -1.546378
 C 3.655590 0.893677 -0.095266
 H 2.184015 -1.979080 -0.508100
 H 4.164432 -1.603683 -2.103626
 H 4.777157 -1.982828 -0.483454
 H 5.739199 0.278582 -0.734792
 H 3.115880 0.945971 -2.258319
 H 4.399945 2.146286 -1.758018
 H 3.890401 1.617303 0.672024