13
charge = 0
 O 1.529069 0.215892 0.905292
 C 2.497262 0.022203 0.209357
 N 2.809212 -1.143020 -0.433214
 C 4.132548 -1.188747 -1.007459
 C 4.585175 0.254281 -0.934361
 N 3.755237 1.249357 -1.573754
 C 3.579930 1.003007 -0.143023
 H 2.194759 -1.936929 -0.378137
 H 4.118174 -1.563947 -2.036909
 H 4.807641 -1.825608 -0.424183
 H 5.645834 0.469908 -0.896972
 H 3.002908 0.822038 -2.107316
 H 3.784862 1.824146 0.530691