11
charge = 0
 O 1.051108 -0.023794 -0.469580
 C 2.198891 0.088442 -0.159323
 N 2.997301 1.259706 -0.344635
 C 4.125795 1.001813 0.188532
 N 4.305369 -0.233793 0.854262
 C 4.329507 -1.323605 -0.131847
 C 3.065544 -0.926883 0.538320
 H 4.968963 1.685435 0.158198
 H 4.827573 -2.229260 0.193732
 H 4.468567 -1.049977 -1.172899
 H 2.628792 -1.568084 1.292739