10
charge = 0
 O 1.170733 -0.025046 -0.465036
 C 2.328882 0.051786 -0.157381
 N 3.183135 -1.008141 0.098752
 C 4.456382 -0.572966 0.427783
 O 5.398627 -1.266590 0.697828
 C 4.390629 0.920432 0.371004
 C 3.158077 1.282377 0.031999
 H 2.911903 -1.975960 0.051584
 H 5.251719 1.536667 0.585028
 H 2.747102 2.272161 -0.103850