12
charge = 0
 O 2.193107 -0.839598 0.415296
 C 2.168732 0.258457 -0.062992
 C 3.324187 1.178199 -0.108015
 C 3.458307 2.082492 -1.298225
 C 3.010051 2.663335 0.001748
 C 3.898621 3.488227 0.761963
 N 4.616662 4.152586 1.367492
 H 1.240255 0.665216 -0.527392
 H 4.227106 0.824058 0.372613
 H 2.711496 2.006966 -2.079252
 H 4.461885 2.305229 -1.633479
 H 1.962691 2.931532 0.092244