14
charge = 0
 O 1.944555 -0.946515 0.627614
 C 2.315743 0.202896 -0.119617
 C 2.924269 -0.238291 -1.397973
 C 3.954012 0.280396 -2.144328
 C 4.065103 -0.505758 -3.318136
 C 3.106875 -1.483702 -3.244303
 N 2.414682 -1.299416 -2.084468
 H 1.389741 -0.665480 1.358768
 H 3.040654 0.822154 0.422032
 H 1.427077 0.823104 -0.311426
 H 4.556407 1.135248 -1.876922
 H 4.773626 -0.374994 -4.120925
 H 2.874314 -2.296939 -3.912753
 H 1.715155 -1.913514 -1.706652