14
charge = 0
 O 2.592568 1.797730 0.845013
 C 2.522889 0.672841 1.278282
 C 2.137711 -0.486070 0.482837
 C 2.095859 -1.741222 0.935265
 C 1.720182 -2.677136 -0.169403
 N 1.333804 -1.812306 -1.286751
 C 1.794033 -0.452259 -0.980936
 H 2.754824 0.456105 2.342653
 H 2.347151 -2.055652 1.942125
 H 0.914011 -3.364479 0.106515
 H 2.583493 -3.307852 -0.430462
 H 0.328017 -1.810683 -1.371182
 H 1.033155 0.295224 -1.218009
 H 2.682601 -0.189120 -1.568556