14
charge = 0
 O 1.979347 0.427068 -1.372324
 C 2.388808 0.088505 -0.054214
 C 2.835095 -1.327077 -0.017438
 C 4.116437 -1.764991 0.209114
 N 4.112562 -3.126202 0.165232
 C 2.849807 -3.576401 -0.090568
 C 2.033194 -2.484152 -0.207960
 H 1.570475 1.295609 -1.341802
 H 1.554589 0.233435 0.646414
 H 3.212586 0.735770 0.276231
 H 5.021839 -1.208672 0.394975
 H 4.916592 -3.709900 0.302396
 H 2.636311 -4.630324 -0.168453
 H 0.975749 -2.503057 -0.421505