11
charge = 0
 O 0.988001 -0.076176 0.029543
 C 2.308871 -0.076764 0.033529
 C 3.049760 -1.184509 -0.197441
 C 4.480767 -1.289263 -0.215031
 C 4.688655 -2.594881 -0.489374
 N 3.464351 -3.260230 -0.633282
 N 2.502541 -2.442365 -0.464044
 H 0.649870 0.805015 0.214051
 H 2.806072 0.870313 0.234525
 H 5.202965 -0.505525 -0.047720
 H 5.611336 -3.143997 -0.602156