12
charge = 0
 O 1.164876 0.349057 0.393577
 C 2.328962 -0.292479 -0.063367
 C 2.812334 0.434815 -1.263203
 C 2.356406 1.517030 -1.935821
 C 3.302969 1.660756 -2.978401
 N 4.232917 0.751525 -2.931625
 O 3.923092 -0.031014 -1.839534
 H 0.840458 -0.121487 1.164087
 H 2.140044 -1.340268 -0.336690
 H 3.123797 -0.290679 0.695933
 H 1.485743 2.108924 -1.715288
 H 3.336893 2.400709 -3.765347