10
charge = 0
 O 2.424286 -1.065833 0.442541
 C 2.244687 0.019460 -0.038275
 C 2.969732 0.548578 -1.197091
 C 2.865662 1.746447 -1.833636
 C 3.825146 1.646469 -2.862871
 N 4.438132 0.493800 -2.834136
 O 3.905786 -0.199681 -1.791011
 H 1.495807 0.727651 0.369070
 H 2.206575 2.566129 -1.600011
 H 4.092288 2.367380 -3.621380