14
charge = 0
 O 3.254760 -0.861014 0.392272
 C 2.251437 0.008774 -0.069314
 C 2.900491 1.269105 -0.592181
 C 1.905375 2.215888 -1.261229
 C 1.912404 3.335189 -0.272749
 N 2.754955 3.199634 0.664961
 O 3.451703 2.026470 0.509673
 H 2.863959 -1.504306 0.986274
 H 1.548848 0.285628 0.728316
 H 1.675739 -0.448840 -0.888692
 H 3.738231 0.998033 -1.238903
 H 0.911825 1.771037 -1.374553
 H 2.224318 2.553337 -2.251135
 H 1.291146 4.220955 -0.299639