12
charge = 0
 O 1.414691 0.558013 0.346061
 C 2.349192 -0.153390 0.110224
 C 2.881325 -0.417219 -1.272093
 C 4.341930 0.071145 -1.482604
 C 4.677419 -1.405017 -1.734147
 O 5.650906 -2.026037 -2.039473
 N 3.381867 -1.768284 -1.474641
 H 2.913080 -0.669058 0.920040
 H 2.170041 -0.064492 -2.022249
 H 4.829257 0.491592 -0.601793
 H 4.487615 0.728523 -2.338051
 H 2.904365 -2.651185 -1.573363