15
charge = 0
 O 2.868434 -0.248031 1.236640
 C 2.060765 -0.436622 0.094802
 C 2.919908 -1.097750 -0.942099
 C 2.988678 -2.584973 -0.981632
 N 2.324632 -1.845258 -2.022271
 C 0.970903 -1.930036 -2.300210
 N 0.155923 -0.985510 -2.515310
 H 2.383034 0.284034 1.871025
 H 1.685322 0.524061 -0.284287
 H 1.189673 -1.069258 0.309968
 H 3.810687 -0.535489 -1.210582
 H 2.372014 -3.116835 -0.261449
 H 3.912026 -3.080305 -1.262342
 H 0.625092 -2.960171 -2.416251
 H 0.609020 -0.077978 -2.402694