12
charge = 0
 O 2.413839 -0.940812 0.961649
 C 2.346224 -0.056321 0.156036
 C 3.196448 1.161178 0.194837
 C 3.794205 1.672272 -1.088974
 N 2.674434 2.319947 -0.496441
 C 2.720665 3.600139 0.030315
 O 3.293823 4.521341 -0.479566
 H 1.638003 -0.086471 -0.700038
 H 3.773261 1.307758 1.103765
 H 3.603925 1.135614 -2.012700
 H 4.757968 2.165766 -1.016598
 H 2.113496 3.692688 0.947916