14
charge = 0
 O 5.731504 0.044211 -0.518483
 C 4.510860 0.605156 -0.092186
 C 3.965718 -0.279852 0.988519
 C 4.368296 -0.038014 2.406159
 N 3.042924 0.262398 1.952637
 C 2.478048 1.513702 1.937016
 O 2.587873 2.331626 2.812608
 H 6.035779 0.518538 -1.295425
 H 3.792600 0.663922 -0.921641
 H 4.646597 1.620829 0.308629
 H 3.764351 -1.302660 0.681109
 H 5.020715 0.806286 2.607574
 H 4.461659 -0.877900 3.085372
 H 1.833387 1.668168 1.051713