15
charge = 0
 O 0.324230 -0.566987 -0.194679
 C 1.681522 -0.254599 -0.448213
 C 2.495953 -1.132191 0.454984
 C 3.123414 -2.363448 -0.035620
 N 3.959184 -1.208065 0.330253
 N 4.425501 -0.541790 -0.832599
 C 5.633279 -0.193666 -0.723272
 H -0.222838 0.007326 -0.734605
 H 1.894093 0.798917 -0.216943
 H 1.950380 -0.427041 -1.494106
 H 2.180654 -1.089092 1.493500
 H 3.036005 -2.567189 -1.097670
 H 3.250841 -3.227769 0.605245
 H 6.090587 0.320358 -1.564121
 H 6.218086 -0.393263 0.176754