14
charge = 0
 O 2.555256 1.060417 -0.376166
 C 2.241914 -0.073752 -0.072343
 C 2.975499 -1.252075 -0.424928
 C 2.646734 -2.510783 -0.055121
 N 3.553629 -3.432403 -0.468135
 C 4.446579 -2.811796 -1.450619
 C 4.279870 -1.306276 -1.178980
 H 1.318066 -0.264144 0.518378
 H 1.791659 -2.815379 0.536468
 H 3.291468 -4.398730 -0.562796
 H 4.120423 -3.065377 -2.466745
 H 5.471448 -3.162495 -1.322751
 H 4.265959 -0.714157 -2.094497
 H 5.094487 -0.918249 -0.558364