10
charge = 0
 O 1.245356 -0.423503 -0.715652
 C 2.172488 -0.048886 -0.044970
 C 2.912274 -0.873793 0.892119
 C 3.966216 -0.604720 1.710105
 N 4.302531 -1.735676 2.406783
 C 3.455684 -2.618442 1.988142
 O 2.584655 -2.182451 1.076400
 H 2.548259 0.993188 -0.092534
 H 4.496358 0.326797 1.836532
 H 3.375369 -3.652225 2.288573