15
charge = 0
 O 2.997824 1.178459 -0.630311
 C 2.492665 -0.049946 -0.152100
 C 2.708236 -0.092834 1.344417
 C 2.235466 -1.384973 2.012351
 N 1.796402 -0.902601 3.322786
 N 1.398539 0.413378 3.201083
 C 1.900484 0.899671 2.136941
 H 2.834164 1.234646 -1.574076
 H 3.009694 -0.898934 -0.622322
 H 1.419308 -0.149889 -0.366794
 H 3.776534 0.078525 1.535795
 H 3.018805 -2.136590 2.112693
 H 1.400409 -1.819251 1.439682
 H 1.074943 -1.444749 3.774630
 H 1.780638 1.946979 1.893546