10
charge = 0
 O 1.417203 -0.671238 -0.626676
 C 2.108095 0.089139 -0.004543
 C 2.854807 -0.249828 1.207475
 C 3.641580 0.591338 1.927344
 O 4.151197 -0.095915 2.966534
 C 3.639536 -1.343414 2.824074
 N 2.872345 -1.495874 1.811570
 H 2.232252 1.146963 -0.321147
 H 3.918903 1.628460 1.836722
 H 3.926881 -2.070423 3.567867