12
charge = 0
 O 2.917233 0.013127 -1.113360
 C 2.300572 0.151976 -0.087758
 C 2.908818 0.714409 1.139930
 N 4.351275 0.831701 1.191511
 C 3.591384 2.046331 0.967464
 C 3.546444 3.028670 2.010248
 C 3.489555 3.868654 2.865392
 H 1.233589 -0.134918 -0.016188
 H 2.408102 0.518748 2.081666
 H 4.717407 0.510456 0.295659
 H 3.570153 2.439673 -0.045904
 H 3.449158 4.610172 3.628039