16
charge = 0
 O 0.874061 -0.403479 0.191012
 C 2.228871 -0.069288 -0.025304
 C 2.819891 -1.027694 -1.019564
 N 2.448348 -2.435704 -0.980180
 C 2.014381 -1.600179 -2.110177
 C 2.627542 -1.996078 -3.419975
 O 2.135520 -3.241214 -3.860154
 H 0.534938 0.127361 0.913792
 H 2.800029 -0.133235 0.911638
 H 2.330495 0.954799 -0.410794
 H 3.878145 -0.852610 -1.201602
 H 1.669044 -2.541889 -0.336801
 H 0.961716 -1.334319 -2.134597
 H 3.721333 -2.021663 -3.313811
 H 2.381309 -1.268912 -4.197974
 H 2.273379 -3.854488 -3.130090