12
charge = 0
 O 0.888923 -0.184599 -0.170331
 C 1.999098 0.241663 0.017784
 C 2.999031 0.379814 -1.069603
 N 2.723314 -0.258692 -2.330649
 C 2.551775 1.181920 -2.259365
 C 3.568153 2.016185 -2.966130
 O 4.739796 1.765424 -2.985967
 H 2.331686 0.554643 1.026357
 H 4.046688 0.456696 -0.796684
 H 1.802517 -0.692944 -2.262677
 H 1.538690 1.573513 -2.231110
 H 3.164030 2.917286 -3.472726