16
charge = 0
 O 1.063834 0.264838 -0.084489
 C 2.408245 -0.088223 0.147932
 C 2.822590 -1.087891 -0.897556
 N 4.244005 -1.511728 -0.849777
 C 3.831941 -2.918421 -1.087574
 C 2.369822 -2.557101 -0.783367
 O 1.339812 -3.058296 -1.575582
 H 0.784678 0.884763 0.592425
 H 2.538498 -0.534541 1.146620
 H 3.071729 0.787153 0.083381
 H 2.589124 -0.676597 -1.889013
 H 4.602651 -1.411208 0.093794
 H 4.316437 -3.672019 -0.463164
 H 3.982484 -3.188841 -2.138963
 H 2.104392 -2.798206 0.249978
 H 1.504458 -2.803881 -2.488143