12
charge = 0
 O 1.772149 0.201394 1.307972
 C 2.028618 -0.229065 0.216813
 C 3.103979 -1.250383 -0.025031
 N 3.824437 -1.714732 1.157839
 C 3.147928 -3.030392 1.157160
 C 2.538448 -2.682989 -0.188850
 O 1.923774 -3.247393 -1.031618
 H 1.474958 0.097860 -0.684927
 H 3.725961 -0.925137 -0.868913
 H 3.590617 -1.147904 1.966113
 H 2.378963 -3.165339 1.927529
 H 3.817467 -3.894509 1.163213