15
charge = 0
 O 1.210841 0.204911 -0.221177
 C 2.541227 -0.178434 0.076277
 C 3.062489 0.493604 1.305671
 N 3.695924 -0.108787 2.233968
 C 4.079210 0.927785 3.193303
 C 3.223569 2.156314 2.835337
 N 2.901617 1.856455 1.445761
 H 0.630787 -0.210308 0.422682
 H 3.141673 0.129072 -0.784146
 H 2.649516 -1.258730 0.202111
 H 5.147815 1.143107 3.073158
 H 3.929220 0.585946 4.218775
 H 3.763478 3.099353 2.932761
 H 2.317427 2.208706 3.453301
 H 2.080607 2.263127 1.024908