11
charge = 0
 O 2.589918 -1.091743 -0.151017
 C 2.081197 0.001957 -0.059853
 C 2.777325 1.228319 -0.409858
 N 2.292245 2.452491 -0.337936
 C 3.291089 3.261889 -0.761513
 C 4.401669 2.518912 -1.096608
 N 4.055612 1.230610 -0.866461
 H 1.046457 0.151258 0.297247
 H 3.176599 4.333891 -0.809307
 H 5.373348 2.802235 -1.466993
 H 4.612231 0.401360 -0.996601