13
charge = 0
 O 3.301311 -1.034806 -0.313172
 C 2.258437 -0.110466 -0.064544
 C 2.702208 1.036026 0.777101
 N 2.323721 2.284212 0.656734
 C 2.955323 2.959309 1.665290
 C 3.732454 2.107703 2.396554
 N 3.556020 0.879777 1.818807
 H 3.953231 -0.604980 -0.873999
 H 1.479612 -0.683294 0.447573
 H 1.820453 0.292568 -0.982865
 H 2.823692 4.021226 1.804252
 H 4.382283 2.260928 3.242025
 H 3.999646 0.014998 2.076543