16
charge = 0
 O 0.888485 0.146249 -0.180742
 C 2.279198 -0.096333 -0.192825
 C 2.874131 0.362060 1.114219
 O 4.250814 0.086715 1.020285
 C 2.562291 1.784873 1.618782
 N 2.463694 1.232750 2.982850
 C 2.237459 -0.117264 2.433736
 H 0.521669 -0.148636 -1.016191
 H 2.778104 0.448125 -1.005555
 H 2.502806 -1.164521 -0.314679
 H 4.657711 0.370486 1.844759
 H 1.616934 2.156884 1.209336
 H 3.351218 2.528768 1.473733
 H 1.713243 1.604010 3.550265
 H 1.183393 -0.381828 2.297030
 H 2.761437 -0.924860 2.953408