16
charge = 0
 O 2.800921 2.023301 -1.885406
 C 2.229964 1.019685 -1.557107
 C 2.896758 -0.201901 -0.998220
 C 4.391797 -0.092273 -0.858972
 C 4.987398 0.815342 0.231385
 N 6.007872 -0.215774 0.480129
 C 5.159127 -1.229390 -0.162162
 H 1.124280 0.943470 -1.656268
 H 2.613496 -1.043432 -1.646853
 H 2.415572 -0.418972 -0.033969
 H 4.843403 0.143398 -1.824228
 H 4.281203 0.957808 1.062861
 H 5.373843 1.788860 -0.075110
 H 6.240170 -0.384628 1.450019
 H 4.510877 -1.781233 0.534939
 H 5.692518 -1.948649 -0.789940