12
charge = 0
 O 2.644459 -1.213551 -1.790836
 C 3.086576 -0.517738 -0.902942
 C 3.117934 0.925648 -1.005226
 C 3.155556 2.124930 -1.066471
 C 3.621005 -1.091114 0.359189
 C 2.709257 -2.036681 1.068315
 N 3.879575 -2.519633 0.377188
 H 3.180634 3.187791 -1.137484
 H 4.293342 -0.464638 0.934222
 H 1.734200 -2.199808 0.620450
 H 2.751107 -2.072999 2.151088
 H 3.603647 -2.890428 -0.530913