16
charge = 0
 O 1.074518 0.224597 -0.925810
 C 2.382847 -0.051376 -0.449689
 C 2.828886 -1.419063 -0.860256
 C 3.211544 -2.361634 -0.010310
 C 3.304554 1.014016 -0.997368
 C 3.113258 1.557281 -2.353440
 N 2.824473 2.373908 -1.173319
 H 0.497319 -0.485872 -0.635802
 H 2.401334 0.013758 0.648923
 H 2.823028 -1.608143 -1.931680
 H 3.221290 -2.183750 1.061104
 H 3.536385 -3.338640 -0.348866
 H 4.313884 0.942068 -0.601635
 H 2.272361 1.183657 -2.927280
 H 3.974326 1.872482 -2.932455
 H 1.819093 2.381702 -1.026116