14
charge = 0
 O 1.064516 0.186630 -0.116584
 C 2.459589 0.003821 0.052955
 C 2.952114 -1.120793 -0.743106
 C 3.328103 -2.054790 -1.397479
 C 3.121066 1.313394 -0.304041
 C 4.530174 1.362568 -0.729264
 N 3.455494 1.645502 -1.675572
 H 0.626774 -0.652815 0.050300
 H 2.685178 -0.206714 1.109942
 H 3.660440 -2.886378 -1.973766
 H 2.710040 2.139347 0.269251
 H 5.061074 0.420053 -0.820175
 H 5.141240 2.215128 -0.454602
 H 3.300620 0.839148 -2.274669