10
charge = 0
 O 2.626817 1.186989 -0.437459
 C 2.459055 0.048368 -0.110609
 C 3.090870 -0.584616 1.112991
 C 2.133241 -1.311253 1.924079
 C 1.317850 -1.897448 2.578244
 C 1.624924 -0.844815 -0.932867
 N 1.002331 -1.541204 -1.603279
 H 3.576491 0.215842 1.675453
 H 3.873749 -1.267720 0.757224
 H 0.596972 -2.422752 3.159903