10
charge = 0
 O 0.981266 -0.234025 -0.007716
 C 2.177383 -0.116318 -0.019003
 C 2.872323 0.983842 -0.644010
 C 3.495078 1.879528 -1.150854
 C 4.248815 2.960638 -1.762369
 C 3.409974 3.966908 -2.407451
 N 2.772979 4.771567 -2.921647
 H 2.840295 -0.861204 0.460250
 H 4.940529 2.553138 -2.508232
 H 4.866459 3.455426 -1.004389