12
charge = 0
 O 2.257643 -0.893306 -0.617239
 C 1.969397 -0.007691 0.135441
 C 2.966738 0.832169 0.894064
 C 4.384138 0.542738 0.559916
 C 5.291377 1.486540 0.313487
 C 6.648768 1.188290 0.014306
 N 7.755225 0.974662 -0.225697
 H 0.907901 0.247631 0.339818
 H 2.775266 0.629042 1.959432
 H 2.715043 1.888810 0.751922
 H 4.673290 -0.502284 0.515113
 H 5.030692 2.540699 0.332637