10
charge = 0
 O 1.232381 -0.288891 -0.501016
 C 2.270032 0.013997 0.004757
 C 3.088371 -0.961918 0.844665
 C 4.511703 -0.772770 0.699133
 C 5.691774 -0.584752 0.544090
 C 7.033814 -0.382115 0.379284
 N 8.167268 -0.209084 0.240105
 H 2.694877 1.033587 -0.085160
 H 2.788883 -1.981176 0.587416
 H 2.802396 -0.793077 1.892126