14
charge = 0
 O 0.850431 -0.219394 -0.496430
 C 2.222254 -0.196381 -0.204118
 C 2.660464 1.141563 0.413697
 C 2.398022 2.257519 -0.541857
 C 1.425247 3.149844 -0.401660
 C 2.514149 -1.296399 0.718519
 N 2.790864 -2.139851 1.447526
 H 0.632582 0.641110 -0.876867
 H 2.818465 -0.380217 -1.111402
 H 3.724983 1.080218 0.658493
 H 2.106219 1.289167 1.343698
 H 3.037052 2.302289 -1.422247
 H 0.772988 3.143616 0.466449
 H 1.261568 3.930206 -1.135719