14
charge = 0
 O 1.113449 0.100158 0.216379
 C 2.504733 0.032807 0.038219
 C 3.024116 -1.073940 0.963167
 C 2.550075 -2.441457 0.553969
 C 1.731207 -3.183989 1.279025
 C 4.483851 -1.022765 0.987810
 N 5.632640 -0.977656 0.981914
 H 0.751660 0.734407 -0.406358
 H 2.995305 0.976807 0.306848
 H 2.775892 -0.209222 -0.997855
 H 2.664197 -0.853797 1.974046
 H 2.917018 -2.798889 -0.404951
 H 1.353833 -2.844480 2.237911
 H 1.403294 -4.157744 0.935595