12
charge = 0
 O 2.464927 -0.355632 1.272925
 C 2.164947 0.055717 -0.025698
 C 2.806823 -0.871900 -1.088993
 C 2.411037 -0.490905 -2.437318
 C 2.048887 -0.149575 -3.527188
 C 4.259954 -0.857017 -0.919318
 N 5.389548 -0.815903 -0.711419
 H 3.391652 -0.172143 1.457291
 H 2.475399 1.087177 -0.225942
 H 1.082659 -0.006323 -0.145154
 H 2.466709 -1.893281 -0.880072
 H 1.735909 0.145524 -4.501305