14
charge = 0
 O 2.460898 0.537154 -1.213926
 C 2.042628 -0.238901 -0.112856
 C 3.052273 -0.054552 1.003652
 C 4.412324 -0.601657 0.672805
 C 5.521620 0.130359 0.595378
 C 4.477862 -2.010477 0.424398
 N 4.483424 -3.146657 0.232244
 H 1.923180 0.311343 -1.975777
 H 1.973825 -1.302709 -0.376298
 H 1.056289 0.082562 0.247329
 H 2.668087 -0.554909 1.898818
 H 3.147254 1.009686 1.231418
 H 5.486312 1.198956 0.770411
 H 6.479024 -0.313397 0.353804