14
charge = 0
 O 1.094325 0.118067 -0.464171
 C 2.484738 0.059466 -0.282222
 C 2.942257 1.142950 0.648197
 C 2.101443 1.998494 1.223445
 C 4.392775 1.175574 0.844223
 N 4.925644 1.785947 1.822034
 O 6.301671 1.705931 1.780991
 H 0.829971 -0.612855 -1.026023
 H 3.017534 0.175648 -1.239936
 H 2.791658 -0.913495 0.133299
 H 1.036860 1.921743 1.048802
 H 2.472192 2.781811 1.872225
 H 5.029848 0.650485 0.127386
 H 6.571583 2.176325 2.574760