16
charge = 0
 O 2.355962 -0.784655 -0.635009
 C 2.010887 0.226206 -0.085317
 C 2.937111 1.212212 0.553022
 C 4.402089 0.846475 0.455455
 N 5.209398 1.820473 1.160641
 C 6.601163 1.882259 0.772793
 C 5.660405 2.953094 0.376525
 H 0.932180 0.489515 -0.019653
 H 2.636758 1.323993 1.602821
 H 2.737974 2.192592 0.099297
 H 4.692613 0.753447 -0.603544
 H 4.565280 -0.133586 0.911345
 H 6.938040 1.206285 -0.009697
 H 7.310416 2.044443 1.576956
 H 5.370261 2.989603 -0.671650
 H 5.671663 3.911054 0.884615