14
charge = 0
 O 1.286616 -0.721621 0.809111
 C 2.422773 -0.526218 0.453620
 C 2.818718 0.423771 -0.578617
 C 4.105797 0.557001 -0.902642
 N 4.556427 1.444661 -1.885517
 C 5.930843 1.918351 -1.705357
 C 5.632711 0.918352 -2.736432
 H 3.265783 -1.085917 0.917155
 H 2.049860 1.010768 -1.068110
 H 4.856648 -0.051506 -0.383398
 H 6.461825 1.586446 -0.817582
 H 6.082066 2.957194 -1.973394
 H 5.955816 -0.103026 -2.557580
 H 5.554826 1.204063 -3.778558