14
charge = 0
 O 0.942585 -0.205169 -0.100485
 C 2.317878 -0.028114 0.139645
 C 2.617311 -0.059346 1.653293
 C 1.860339 0.968897 2.345752
 N 1.225365 1.795631 2.831932
 C 3.046319 -1.138203 -0.544228
 C 4.101063 -0.964444 -1.324139
 H 0.458915 0.520117 0.309441
 H 2.666899 0.934446 -0.257816
 H 3.684744 0.093018 1.830659
 H 2.340483 -1.036369 2.059348
 H 2.653367 -2.134162 -0.352270
 H 4.492150 0.025435 -1.538371
 H 4.611072 -1.803637 -1.781871