17
charge = 0
 O 2.679201 0.795331 -0.924160
 C 2.354173 -0.033699 0.176669
 C 3.031840 0.523654 1.405920
 C 4.552986 0.512459 1.290596
 N 5.229440 1.030327 2.451865
 C 5.409196 0.329026 3.604779
 N 5.120118 -0.880888 3.871986
 H 2.269652 0.436256 -1.713940
 H 2.692977 -1.065454 0.000122
 H 1.268504 -0.064112 0.336626
 H 2.721657 -0.058188 2.278817
 H 2.689206 1.550635 1.567222
 H 4.857453 1.100311 0.423710
 H 4.903869 -0.510183 1.106556
 H 5.462789 2.006555 2.466825
 H 5.891001 0.924579 4.383813
 H 4.675539 -1.349911 3.084296