14
charge = 0
 O 3.732002 -0.392714 -1.009893
 C 2.549471 -0.092865 -0.304707
 C 2.880542 0.386329 1.065439
 C 4.123247 0.501354 1.519882
 N 4.466852 0.943158 2.787392
 C 5.741534 1.058339 3.245772
 O 6.035670 1.443558 4.350354
 H 3.495113 -0.696665 -1.888112
 H 1.900639 -0.979931 -0.231022
 H 1.965934 0.681184 -0.827790
 H 2.033663 0.645332 1.695492
 H 4.965215 0.241994 0.888440
 H 3.740154 1.205012 3.438214
 H 6.489155 0.757505 2.488721