16
charge = 0
 O 2.513842 -0.462363 1.371977
 C 1.828605 0.047309 0.241663
 C 2.375731 -0.647188 -0.978752
 N 3.771883 -0.319929 -1.160944
 C 4.379468 -1.057134 -2.251079
 C 5.811215 -0.815047 -2.342470
 C 6.995441 -0.633360 -2.407236
 H 2.320851 0.092873 2.129762
 H 1.988525 1.127970 0.141147
 H 0.749828 -0.142861 0.317341
 H 1.811132 -0.311062 -1.855943
 H 2.199344 -1.733211 -0.876877
 H 4.268828 -0.509763 -0.298450
 H 3.906961 -0.743886 -3.190182
 H 4.215916 -2.147786 -2.175830
 H 8.044548 -0.465452 -2.467515