16
charge = 0
 O 2.903269 -0.808854 0.728664
 C 2.447414 0.077644 -0.279002
 C 3.016314 1.449680 0.044971
 O 2.734925 1.770443 1.388227
 C 4.493510 1.559286 -0.275939
 C 5.327029 2.554546 0.417705
 N 5.511104 1.125230 0.665252
 H 2.426347 -1.638024 0.662416
 H 1.351862 0.134277 -0.275960
 H 2.781390 -0.241591 -1.273764
 H 2.489962 2.179992 -0.582072
 H 2.717224 0.931459 1.864974
 H 4.724954 1.325643 -1.313623
 H 4.842654 3.145030 1.187961
 H 6.142923 3.039244 -0.107295
 H 5.070118 0.878504 1.545605