14
charge = 0
 O 1.368429 -0.048649 -0.548358
 C 2.540412 -0.151758 0.192337
 C 2.853638 -1.600834 0.494649
 O 2.139992 -2.484787 0.074550
 N 4.020775 -1.832031 1.180474
 C 4.298244 -1.416796 2.533394
 C 4.172235 -2.857378 2.170582
 H 1.088899 -0.963102 -0.712247
 H 2.452110 0.398522 1.139558
 H 3.396146 0.277330 -0.346518
 H 3.485704 -0.974012 3.101697
 H 5.277031 -0.983290 2.706732
 H 3.272177 -3.381916 2.473829
 H 5.064400 -3.467200 2.084831