12
charge = 0
 O 1.985012 -0.954910 -0.592879
 C 2.089298 0.169825 -0.185748
 N 3.192700 0.975957 -0.385488
 C 3.895581 1.047415 -1.627261
 C 3.130735 2.232313 -1.107596
 C 3.789944 3.379628 -0.552022
 C 4.333365 4.353615 -0.110183
 H 1.328850 0.657038 0.450301
 H 3.473365 0.507333 -2.468805
 H 4.976870 1.063978 -1.559947
 H 2.196597 2.445578 -1.622423
 H 4.818973 5.213430 0.287670