11
charge = 0
 O 1.704663 -0.989692 0.073051
 C 2.263801 0.026190 -0.227175
 N 3.481966 0.075812 -0.890518
 C 3.818281 -0.788498 -1.975760
 C 3.634158 0.686564 -2.189800
 C 4.763566 1.557154 -2.394763
 N 5.659521 2.251261 -2.585531
 H 1.899453 1.031112 0.048034
 H 3.038994 -1.441671 -2.355290
 H 4.824649 -1.190224 -1.970657
 H 2.734038 0.993991 -2.715391