14
charge = 0
 O 1.663294 -1.369860 0.593008
 C 2.003368 -0.239411 0.817973
 N 3.289482 0.214424 0.928582
 C 3.671319 1.339432 1.760300
 C 4.470409 0.684898 2.903427
 C 4.597397 -0.766345 2.428909
 O 4.292937 -0.731307 1.033198
 H 1.297526 0.611262 0.896529
 H 2.781445 1.873493 2.093997
 H 4.296593 2.025647 1.186210
 H 3.947267 0.747511 3.857863
 H 5.443652 1.162162 3.017060
 H 3.883006 -1.421522 2.938105
 H 5.600995 -1.179884 2.520630