11
charge = 0
 O 2.546651 -1.104247 0.117692
 C 2.264454 0.047772 -0.028521
 N 2.905442 0.895501 -0.925440
 C 2.624433 2.234315 -1.138526
 C 3.497593 2.636302 -2.093505
 N 4.311829 1.592529 -2.481140
 C 3.939671 0.572900 -1.773408
 H 1.466361 0.564116 0.531478
 H 1.846660 2.746358 -0.596320
 H 3.595404 3.616979 -2.532156
 H 4.349892 -0.424515 -1.801555