16
charge = 0
 O 0.857181 0.057859 1.484570
 C 2.049006 -0.101637 1.602649
 N 2.945399 -0.045311 0.591865
 C 4.355864 -0.232329 0.727317
 C 5.081543 -1.271196 -0.149990
 C 6.285371 -0.310482 -0.190865
 C 5.328355 0.835612 0.189298
 H 2.531202 -0.314833 2.576957
 H 2.563498 0.146676 -0.322991
 H 4.559513 -0.426289 1.783996
 H 4.602910 -1.343533 -1.130416
 H 5.217712 -2.276791 0.250201
 H 6.831891 -0.223456 -1.129217
 H 6.996475 -0.522685 0.609828
 H 4.914258 1.314321 -0.702264
 H 5.673142 1.609564 0.876352