14
charge = 0
 O 0.703512 -1.106728 -0.015898
 C 1.901722 -0.988507 0.055252
 N 2.768926 -1.262374 -0.950036
 C 4.183768 -1.120102 -0.868107
 C 5.088388 -2.281945 -1.305093
 O 5.896505 -1.392705 -2.083578
 C 4.931794 -0.341817 -1.960957
 H 2.418762 -0.637095 0.969524
 H 2.354678 -1.586734 -1.812189
 H 4.430161 -0.761906 0.132405
 H 4.570242 -3.020219 -1.931018
 H 5.661634 -2.799468 -0.531830
 H 4.343925 -0.214853 -2.879402
 H 5.386273 0.613063 -1.685262