15
charge = 0
 O 3.699926 0.705392 2.991533
 C 3.033619 -0.233265 3.355602
 N 3.029996 -1.458820 2.776942
 C 3.752664 -1.753485 1.560308
 C 5.089085 -2.428275 1.769020
 C 5.957020 -2.094012 2.905716
 N 5.294633 -3.399734 2.833853
 H 2.347972 -0.180267 4.222565
 H 2.358403 -2.124381 3.119126
 H 3.906604 -0.810387 1.030269
 H 3.120642 -2.389600 0.933418
 H 5.561652 -2.709274 0.830962
 H 5.587169 -1.366073 3.619663
 H 7.034602 -2.117998 2.789442
 H 4.495934 -3.393521 3.461580