11
charge = 0
 O 0.953598 -0.280276 0.225304
 C 2.152779 -0.266115 0.250061
 N 2.884303 0.310248 1.259965
 C 4.249310 0.334108 1.301781
 C 4.976488 0.892384 2.279990
 C 6.389601 0.873151 2.246295
 N 7.542970 0.866920 2.235381
 H 2.791505 -0.712889 -0.532712
 H 2.348509 0.735270 2.004684
 H 4.735863 -0.146538 0.459598
 H 4.509342 1.377687 3.130333