13
charge = 0
 O 2.816858 2.795613 1.026128
 C 2.190850 2.142494 0.224275
 N 2.752373 1.323053 -0.693158
 C 4.179707 1.141187 -0.774641
 C 4.874035 2.340085 -1.433239
 C 6.302539 2.118609 -1.573696
 N 7.428042 1.911340 -1.681907
 H 1.086901 2.153786 0.167949
 H 2.150802 0.833191 -1.332183
 H 4.383477 0.230764 -1.339083
 H 4.577896 1.010104 0.233321
 H 4.706053 3.230968 -0.823220
 H 4.450366 2.527496 -2.423846