12
charge = 0
 O 2.483649 0.716550 0.403912
 C 2.091727 -0.327045 -0.042541
 N 2.910384 -1.345333 -0.471814
 C 4.277907 -1.274365 -0.434923
 C 5.111258 -2.241477 -0.842336
 C 6.547010 -2.039982 -0.749595
 O 7.376355 -2.848852 -1.089698
 H 1.023536 -0.580288 -0.155039
 H 2.474328 -2.180933 -0.829463
 H 4.648645 -0.336384 -0.034028
 H 4.760250 -3.186338 -1.246068
 H 6.849752 -1.055654 -0.329318