14
charge = 0
 O 4.676032 1.860332 1.363187
 C 4.348473 1.707003 0.214098
 N 4.733136 0.642266 -0.542585
 O 4.026038 0.389056 -1.703651
 C 4.847922 0.531646 -2.833312
 C 4.131210 0.900450 -4.077326
 C 5.050411 1.889407 -3.410309
 H 3.735962 2.421586 -0.364138
 H 5.039014 -0.195443 -0.063965
 H 5.659793 -0.188446 -2.877370
 H 3.067472 1.078809 -3.983687
 H 4.437745 0.432013 -5.003449
 H 4.586055 2.719385 -2.892876
 H 6.005348 2.112857 -3.868724