14
charge = 0
 O 1.537467 0.629383 -0.173060
 C 2.815303 0.449830 0.216886
 O 3.252545 0.998014 1.183077
 C 3.593102 -0.477536 -0.676089
 C 4.762472 -1.287925 -0.118803
 C 4.155831 -2.460770 -0.905737
 N 2.874787 -1.716021 -1.100733
 H 1.366054 0.105018 -0.967556
 H 3.877017 0.093007 -1.570395
 H 4.683304 -1.409823 0.962521
 H 5.770225 -0.961245 -0.373215
 H 4.053413 -3.417495 -0.392359
 H 4.639656 -2.629403 -1.870536
 H 2.244335 -1.991642 -0.352190