14
charge = 0
 O 2.078386 2.029530 0.795186
 C 1.933974 1.009979 1.402882
 O 2.900789 0.154839 1.734104
 C 4.207773 0.496262 1.292146
 C 4.996103 1.533460 2.097754
 N 6.160809 0.635194 2.002685
 C 5.279208 -0.507561 1.707078
 H 0.971815 0.632297 1.778544
 H 4.187726 0.715913 0.225182
 H 4.578179 1.632773 3.107972
 H 5.130528 2.522358 1.657320
 H 6.719355 0.550469 2.841225
 H 4.949649 -1.071134 2.589075
 H 5.654109 -1.200289 0.950458