14
charge = 0
 O 2.183313 1.926884 -0.184577
 C 2.766969 2.962050 -0.063333
 O 3.962044 3.120845 0.504730
 C 4.575770 1.930605 1.010609
 C 5.914387 2.277283 1.588987
 C 6.740776 3.370601 1.051309
 N 6.110405 3.488288 2.368132
 H 2.397554 3.938968 -0.407614
 H 4.675045 1.202075 0.201457
 H 3.921320 1.494379 1.771005
 H 6.418232 1.405381 1.999315
 H 6.330997 3.955536 0.235174
 H 7.821670 3.286052 1.064823
 H 5.287709 4.078363 2.290492