14
charge = 0
 O 1.703788 -1.142945 1.329105
 C 1.495923 -0.124552 0.494850
 O 0.421327 0.371226 0.322334
 C 2.745766 0.323434 -0.249057
 N 3.936726 -0.197454 0.387998
 C 5.214923 0.255728 -0.119732
 C 4.718705 0.729112 1.189812
 H 2.661846 -1.335930 1.282887
 H 2.723164 1.416686 -0.335167
 H 2.672716 -0.088085 -1.261049
 H 5.199680 0.963662 -0.943335
 H 5.994884 -0.495302 -0.170127
 H 4.364594 1.754013 1.252693
 H 5.131748 0.325316 2.106799