12
charge = 0
 O 1.282513 -0.397966 0.303230
 N 2.513747 -0.318504 -0.306414
 C 3.435497 -1.408902 -0.203762
 C 4.729623 -0.723500 -0.517653
 C 4.549795 0.593572 -0.614884
 C 3.129057 0.897101 -0.342132
 O 2.545154 1.943663 -0.127415
 H 1.082656 0.546604 0.453167
 H 3.204552 -2.215339 -0.908087
 H 3.433765 -1.831099 0.809205
 H 5.651320 -1.269103 -0.666564
 H 5.286532 1.354472 -0.825291