14
charge = 0
 O 1.167971 0.371237 0.472776
 N 2.403169 0.331296 -0.126199
 C 3.295744 1.447327 0.009917
 C 4.520275 0.915979 -0.746869
 C 4.445607 -0.607707 -0.590708
 C 2.998160 -0.871903 -0.259478
 O 2.408115 -1.921030 -0.070391
 H 0.974582 -0.582695 0.570940
 H 3.505508 1.651858 1.068188
 H 2.872574 2.347559 -0.439017
 H 5.446316 1.340014 -0.360621
 H 4.440191 1.189085 -1.800185
 H 5.042716 -0.971042 0.251279
 H 4.759974 -1.162278 -1.474842