13
charge = 0
 O 1.190576 0.184416 -0.372394
 N 2.421157 0.173288 0.293059
 C 3.175095 1.339773 0.096588
 C 4.483288 1.306434 0.319749
 C 5.100584 0.023240 0.783238
 N 4.371713 -1.146361 0.306299
 C 3.134037 -1.014302 0.108076
 H 0.538968 0.205356 0.336337
 H 2.612009 2.194638 -0.250938
 H 5.089416 2.187188 0.152413
 H 5.136239 -0.020749 1.882369
 H 6.137226 -0.058435 0.446550
 H 2.518482 -1.841186 -0.238445