15
charge = 0
 O 0.984994 0.045962 -0.284044
 N 2.309201 0.176108 0.160057
 C 2.957278 1.348507 -0.384826
 C 4.390596 1.338151 0.114796
 C 5.072562 0.032367 -0.275176
 N 4.257614 -1.156225 -0.108801
 C 3.009755 -1.016012 0.046875
 H 0.452947 0.261371 0.488833
 H 2.419856 2.235449 -0.041718
 H 2.920167 1.332044 -1.482762
 H 4.384689 1.442755 1.203773
 H 4.932252 2.196357 -0.291079
 H 5.988230 -0.102994 0.308241
 H 5.392258 0.066536 -1.323898
 H 2.368902 -1.890577 0.150028