13
charge = 0
 O 1.298040 0.523651 0.614381
 N 2.467117 0.278562 -0.124718
 C 3.292290 1.396932 -0.239346
 N 4.520885 1.231247 0.052095
 C 4.685295 -0.115445 0.499176
 C 4.393488 -1.202513 -0.499411
 C 3.308570 -0.763394 0.417535
 H 0.592797 0.191546 0.049589
 H 2.863817 2.326063 -0.596424
 H 5.421134 -0.283363 1.275744
 H 4.832558 -2.174187 -0.308286
 H 4.328607 -0.918084 -1.543939
 H 2.853003 -1.408305 1.155903