12
charge = 0
 O 1.016416 -0.034345 -0.021236
 N 2.376950 -0.029241 -0.104064
 C 2.944350 -0.138537 1.038689
 C 4.404976 -0.153392 1.164357
 C 4.686903 -0.277687 2.471884
 C 3.426909 -0.346769 3.228635
 C 2.382568 -0.264721 2.383934
 H 0.737621 0.052980 -0.938050
 H 5.085159 -0.075809 0.329990
 H 5.671574 -0.321721 2.916230
 H 3.367355 -0.448445 4.304291
 H 1.330529 -0.284813 2.618660