14
charge = 0
 O 1.067215 0.015014 -0.401041
 N 2.448677 -0.089756 -0.273807
 C 3.036920 0.884156 -0.826865
 C 2.412111 2.047662 -1.549975
 C 3.609814 2.845770 -1.969012
 C 4.752185 2.287688 -1.582479
 C 4.540512 1.008031 -0.829888
 H 0.753371 -0.771316 0.053125
 H 1.728250 2.598761 -0.893503
 H 1.799236 1.705386 -2.392337
 H 3.529647 3.772203 -2.524909
 H 5.738002 2.692247 -1.777032
 H 4.944372 1.046678 0.187826
 H 5.015197 0.149566 -1.317805