15
charge = 0
 O 1.084038 -0.194269 -0.285735
 N 2.464393 -0.012090 -0.082472
 C 2.932653 -0.970906 0.611309
 C 2.233121 -2.196325 1.124919
 C 3.302790 -2.888395 1.973107
 C 4.614824 -2.370452 1.387669
 N 4.254050 -1.022378 0.994204
 H 0.853145 0.582723 -0.799206
 H 1.923525 -2.802123 0.267804
 H 1.325727 -1.938398 1.671092
 H 3.235383 -3.976136 1.949216
 H 3.219534 -2.567078 3.013712
 H 4.929521 -2.985571 0.531334
 H 5.429114 -2.361640 2.115096
 H 4.907180 -0.456952 0.476363