12
charge = 0
 O 0.988752 0.040910 -0.267006
 N 2.360501 0.079749 -0.023909
 C 2.874015 1.052796 -0.644063
 C 2.259197 2.090175 -1.535663
 C 3.465939 2.899510 -1.896778
 C 4.514554 2.362258 -1.290155
 O 4.220666 1.257581 -0.528865
 H 0.710186 -0.722823 0.244448
 H 1.485051 2.650300 -0.999810
 H 1.760784 1.618959 -2.389900
 H 3.480244 3.766806 -2.537417
 H 5.558019 2.637779 -1.287583