15
charge = 0
 O 0.960208 0.448448 0.124079
 N 2.345685 0.320969 0.191628
 C 2.884956 0.533191 -0.932151
 C 2.238264 0.914695 -2.230897
 C 3.433328 0.947241 -3.195914
 N 4.625463 1.189743 -2.384232
 C 4.379735 0.472213 -1.137735
 H 0.688235 0.275154 1.029281
 H 1.768236 1.898503 -2.126591
 H 1.446034 0.216461 -2.510329
 H 3.341861 1.701388 -3.978168
 H 3.541878 -0.024682 -3.688763
 H 4.688209 2.181025 -2.182513
 H 4.942172 0.891687 -0.303671
 H 4.692237 -0.572957 -1.254816