14
charge = 0
 O 0.869309 -0.690374 1.393576
 N 2.213753 -0.950088 1.600833
 C 2.946049 -0.304373 0.793337
 C 4.405383 -0.472911 0.791578
 C 5.091741 -1.378062 1.778991
 C 5.005287 -1.776540 0.346055
 O 6.128122 -1.686796 -0.466907
 H 0.439904 -1.212622 2.076340
 H 2.494866 0.369964 0.062704
 H 4.968645 0.394772 0.467504
 H 4.466344 -1.892577 2.496816
 H 6.058153 -1.046105 2.137687
 H 4.296561 -2.559457 0.084414
 H 6.733595 -2.392742 -0.223609