15
charge = 0
 O 1.098147 -0.769446 0.242054
 N 2.449879 -0.965589 0.019394
 C 3.127281 -0.834938 1.079628
 C 4.613679 -0.968730 1.083984
 C 5.289352 -0.990689 -0.296648
 C 5.595972 0.495811 -0.060606
 N 5.316670 0.304073 1.374902
 H 0.711861 -0.908020 -0.627164
 H 2.629440 -0.598235 2.024643
 H 4.892917 -1.770162 1.778073
 H 4.652842 -1.243102 -1.140855
 H 6.185085 -1.610549 -0.300638
 H 4.884167 1.151236 -0.575349
 H 6.611591 0.838513 -0.272135
 H 4.748797 1.021328 1.810927