15
charge = 0
 O 0.889713 0.300801 0.151990
 N 2.251023 0.309320 0.394502
 C 2.900286 0.799705 -0.576525
 C 4.372122 0.897773 -0.512625
 C 5.204034 0.353732 -1.695232
 N 6.087455 1.521052 -1.571527
 C 5.040320 2.250742 -0.843921
 H 0.528934 -0.088979 0.953044
 H 2.375191 1.153966 -1.467938
 H 4.727571 0.501658 0.438526
 H 4.612945 0.329692 -2.621645
 H 5.690507 -0.615269 -1.559739
 H 6.393222 1.937594 -2.440992
 H 4.393702 2.869931 -1.481632
 H 5.391094 2.853771 -0.002907