14
charge = 0
 O 0.692818 -0.421590 -1.534531
 N 2.032575 -0.651419 -1.776864
 C 2.773461 -0.068052 -0.931044
 C 4.242768 -0.194711 -1.023853
 C 5.082688 1.093844 -0.945980
 O 5.872539 0.575061 0.128760
 C 5.015650 -0.564086 0.256041
 H 0.256262 -0.912727 -2.236148
 H 2.334701 0.531398 -0.128751
 H 4.501677 -0.822686 -1.875603
 H 4.516707 1.983269 -0.643661
 H 5.684753 1.331620 -1.826916
 H 4.415342 -0.522292 1.172933
 H 5.570039 -1.505918 0.230438