14
charge = 0
 O 1.610184 0.115206 0.264927
 N 2.883947 -0.318831 -0.032491
 C 2.956754 -0.944113 -1.152339
 C 1.827435 -1.106697 -2.066003
 C 1.824350 -1.927262 -3.114034
 C 4.277113 -1.488694 -1.502188
 C 5.152268 -1.960395 -0.622094
 H 1.740908 0.603738 1.082003
 H 0.948986 -0.513829 -1.841925
 H 2.670316 -2.560149 -3.357429
 H 0.956932 -2.001691 -3.759052
 H 4.521967 -1.492330 -2.560233
 H 4.922667 -1.989155 0.436587
 H 6.122985 -2.322887 -0.938738