14
charge = 0
 O 0.563725 -2.048949 0.952715
 N 1.636762 -1.230654 0.681418
 C 2.738051 -1.773017 1.029506
 C 3.975553 -1.070851 0.825745
 C 5.171495 -1.577932 1.166472
 C 6.423991 -0.891232 0.971224
 C 7.612944 -1.394115 1.309438
 H -0.188943 -1.533454 0.649118
 H 2.746335 -2.767133 1.480860
 H 3.904232 -0.085972 0.372596
 H 5.217607 -2.566923 1.619161
 H 6.370967 0.096475 0.518468
 H 7.701388 -2.376143 1.762890
 H 8.530092 -0.842600 1.144379