14
charge = 0
 O 1.070454 1.351680 0.654297
 N 2.422022 1.591735 0.542914
 C 3.053431 0.552303 0.172156
 C 4.500612 0.578096 -0.003154
 C 5.121372 -0.544572 -0.388225
 C 5.213213 1.831056 0.281708
 C 6.299104 2.245032 -0.361493
 H 0.718028 2.201571 0.933232
 H 2.520404 -0.380673 -0.018795
 H 4.561505 -1.446530 -0.607698
 H 6.199215 -0.591101 -0.479406
 H 4.779386 2.453361 1.058024
 H 6.724966 1.684158 -1.186792
 H 6.788268 3.173483 -0.092158