10
charge = 0
 O 1.022226 -0.104987 0.114282
 N 2.368952 0.063624 -0.051525
 C 3.027572 -0.717031 0.716092
 C 4.436411 -0.702379 0.701679
 C 5.645569 -0.745456 0.744042
 C 7.003730 -0.781872 0.779856
 C 8.208854 -0.815695 0.813113
 H 0.640402 0.524811 -0.504994
 H 2.513111 -1.403223 1.390832
 H 9.272472 -0.844792 0.841724