16
charge = 0
 O 0.746864 0.583480 0.662862
 N 2.122296 0.500195 0.808599
 C 2.732440 1.073464 -0.140706
 C 4.220468 1.092207 -0.157281
 C 4.802562 2.512351 -0.171420
 C 4.491812 3.266625 -1.422027
 C 3.833170 4.415466 -1.481205
 H 0.419621 0.116586 1.436404
 H 2.175043 1.564011 -0.941239
 H 4.573435 0.556905 -1.047883
 H 4.583205 0.544732 0.715077
 H 5.890647 2.427037 -0.067674
 H 4.441574 3.067127 0.699400
 H 4.843945 2.813822 -2.348665
 H 3.461050 4.901370 -0.584269
 H 3.644756 4.914243 -2.424864