11
charge = 0
 O 0.978040 0.323605 -0.325598
 N 2.335254 0.427688 -0.237639
 C 2.927147 -0.435905 -0.967442
 C 4.364807 -0.451137 -0.980314
 C 5.073039 -1.320732 -1.715187
 C 6.489815 -1.336065 -1.728145
 N 7.642049 -1.368438 -1.755502
 H 0.657978 1.016943 0.260326
 H 2.360271 -1.147721 -1.568979
 H 4.866141 0.283654 -0.359360
 H 4.579881 -2.059451 -2.339460