15
charge = 0
 O 2.224436 0.361708 1.219806
 N 1.654119 -0.223774 0.085359
 C 2.513368 -1.287178 -0.423917
 C 1.810400 -2.131031 -1.435041
 C 2.299344 -2.417394 -2.632402
 C 1.172585 0.718871 -0.815506
 N 0.962177 1.949416 -0.626700
 H 1.631536 0.118226 1.938769
 H 2.768173 -1.903611 0.442986
 H 3.451510 -0.888516 -0.831502
 H 0.853110 -2.542680 -1.123796
 H 3.247390 -2.010328 -2.969771
 H 1.772698 -3.072050 -3.316590
 H 0.920525 0.256953 -1.770657
 H 1.276727 2.219399 0.305661