12
charge = 0
 O 1.507016 0.559111 0.711069
 N 2.228686 0.740868 -0.447614
 C 3.473213 0.917980 -0.246770
 C 4.229647 0.953499 1.006661
 C 5.548503 0.737138 0.990659
 C 3.604098 1.328445 2.313854
 O 4.088350 1.038072 3.375347
 H 0.609001 0.430157 0.392862
 H 4.039276 1.016597 -1.169201
 H 6.079111 0.522425 0.069728
 H 6.114200 0.773070 1.914030
 H 2.686299 1.935938 2.251173