14
charge = 0
 O 0.758810 -1.304987 -0.190039
 N 2.139496 -1.383731 -0.245107
 C 2.683164 -0.867602 0.774931
 C 4.169330 -0.868381 0.884931
 C 4.682043 -1.712604 2.045198
 C 4.386006 -1.162602 3.407886
 O 3.829231 -0.120258 3.621229
 H 0.485679 -1.713530 -1.015915
 H 2.081718 -0.427398 1.571115
 H 4.514855 0.161450 1.021589
 H 4.583493 -1.242272 -0.053069
 H 5.772706 -1.829735 1.989673
 H 4.286249 -2.735366 2.004733
 H 4.736220 -1.796184 4.251745