14
charge = 0
 O -0.572326 -0.584453 1.956726
 N 0.328887 -1.276124 1.168724
 C 1.723339 -1.050300 1.466939
 C 2.132508 -1.731548 2.733387
 C 2.536657 -1.092485 3.821486
 C -0.130646 -1.698335 -0.036781
 O 0.569688 -2.142373 -0.915731
 H -0.690627 -1.125650 2.747200
 H 1.908750 0.027204 1.528679
 H 2.266935 -1.452558 0.607699
 H 2.076399 -2.818062 2.727418
 H 2.598057 -0.008733 3.848266
 H 2.832140 -1.625302 4.717775
 H -1.228061 -1.603402 -0.098686