12
charge = 0
 O 1.283020 -0.400616 -0.591725
 N 2.415595 -0.044808 0.110279
 C 3.345222 0.810473 -0.584486
 C 2.793460 2.138304 -0.816370
 C 2.320792 3.221797 -1.019544
 C 2.782279 -0.856909 1.135383
 O 3.846673 -0.795525 1.702336
 H 0.654727 0.318016 -0.442867
 H 3.630861 0.354100 -1.539650
 H 4.234072 0.859489 0.050147
 H 1.915277 4.190451 -1.195418
 H 1.972824 -1.560863 1.391516