15
charge = 0
 O 1.571265 -0.999226 -2.148995
 N 2.723377 -0.602043 -1.496518
 C 2.870523 0.654292 -1.517376
 C 4.053612 1.262888 -0.847911
 N 4.798946 2.081182 -1.786562
 C 6.185413 2.315556 -1.442890
 C 5.825660 1.388617 -2.538918
 H 1.589720 -1.956054 -2.059938
 H 2.152728 1.301635 -2.023427
 H 4.658989 0.460094 -0.400233
 H 3.711784 1.917387 -0.037250
 H 6.559116 1.872257 -0.522959
 H 6.566313 3.306785 -1.663049
 H 5.952377 0.325006 -2.353363
 H 5.938969 1.692737 -3.573421