10
charge = 0
 O 1.018865 -0.065236 -0.043975
 N 2.360275 0.139457 -0.020098
 C 3.004932 -0.845860 -0.497288
 C 4.488236 -0.768322 -0.538448
 O 5.136443 0.170832 -0.148036
 C 5.117291 -1.950062 -1.103995
 C 5.628598 -2.931061 -1.572981
 H 0.658772 0.742228 0.338559
 H 2.504372 -1.737363 -0.873578
 H 6.099215 -3.793105 -1.986271