14
charge = 0
 O 0.938009 1.051513 0.778849
 N 2.312792 1.124211 0.734094
 C 2.881988 0.073028 1.137380
 C 4.383551 0.036631 1.141773
 O 4.938192 1.241478 0.709046
 C 4.879377 -0.367806 2.504581
 C 5.700869 0.361307 3.241133
 H 0.657668 1.909041 0.446358
 H 2.318755 -0.795492 1.479048
 H 4.677300 -0.766237 0.440954
 H 4.199268 1.829130 0.500553
 H 4.527545 -1.334634 2.858408
 H 6.062019 1.317559 2.882522
 H 6.036296 0.017790 4.212310