12
charge = 0
 O 0.830945 0.331046 0.444716
 N 2.194455 0.325889 0.632027
 C 2.806055 0.934935 -0.290804
 C 4.305272 0.999699 -0.234816
 O 4.890632 0.299207 -1.318003
 C 4.752072 2.390383 -0.183830
 C 5.101019 3.538827 -0.182312
 H 0.502915 -0.164218 1.200911
 H 2.281569 1.398991 -1.127638
 H 4.621750 0.481303 0.674405
 H 4.911770 0.885134 -2.080523
 H 5.418325 4.555095 -0.167434