15
charge = 0
 O 1.239906 -0.181435 0.966424
 N 2.339354 -0.657923 0.252367
 C 3.267142 0.331400 -0.090203
 N 3.060595 1.579910 -0.079906
 C 4.554405 -0.252490 -0.536767
 C 5.412348 0.543209 -1.477185
 C 5.829241 0.395916 -0.058219
 H 0.489765 -0.360659 0.390573
 H 2.748725 -1.425849 0.771506
 H 2.141645 1.782039 0.308046
 H 4.561206 -1.330416 -0.656564
 H 5.004085 1.500389 -1.774912
 H 5.954226 -0.003798 -2.238218
 H 5.702321 1.256608 0.585833
 H 6.662425 -0.254313 0.177716