15
charge = 0
 O 1.147748 0.426498 -3.110112
 N 2.436249 0.155643 -2.649658
 C 2.782341 0.835351 -1.483299
 N 1.987021 1.392702 -0.672953
 C 4.268163 0.789492 -1.222261
 C 5.056396 1.484067 -2.288595
 C 5.960961 0.901408 -3.064491
 H 0.698101 -0.423408 -3.066831
 H 3.094720 0.304267 -3.406467
 H 1.034075 1.344030 -1.033779
 H 4.592715 -0.252323 -1.138544
 H 4.416256 1.275024 -0.255777
 H 4.845741 2.544117 -2.416965
 H 6.202098 -0.152446 -2.960707
 H 6.503315 1.458568 -3.819570