14
charge = 0
 O 3.443936 -0.613617 -1.382043
 N 2.756767 0.484636 -0.900321
 C 1.515643 0.635687 -1.384394
 O 1.075392 -0.092143 -2.259811
 C 3.304030 1.058216 0.268993
 C 4.565299 1.853267 0.141518
 C 3.269445 2.549930 0.401412
 H 2.788112 -0.975281 -2.014661
 H 0.968409 1.473221 -0.931124
 H 3.179238 0.463254 1.169744
 H 4.988749 1.934160 -0.850712
 H 5.284702 1.770858 0.945353
 H 2.835465 3.117468 -0.410948
 H 3.077203 2.949344 1.388513