14
charge = 0
 O 2.164764 3.333218 0.715877
 N 3.368459 2.657833 0.687332
 C 3.756012 2.206177 -0.529900
 O 3.147150 2.568789 -1.528306
 C 4.941814 1.326124 -0.543244
 C 4.976247 0.237369 -1.585594
 C 5.856060 1.422729 -1.736196
 H 1.943890 3.351830 -0.238670
 H 3.507865 2.104112 1.517396
 H 5.396485 1.119044 0.418816
 H 4.110953 0.175021 -2.232886
 H 5.416250 -0.707387 -1.293490
 H 5.579061 2.155978 -2.482516
 H 6.916683 1.313843 -1.550510