14
charge = 0
 O 4.912994 -0.676850 1.274018
 N 5.072014 -0.237351 -0.039402
 C 6.300223 -0.169955 -0.338453
 O 6.728839 0.223480 -1.536409
 C 5.728611 0.570353 -2.480265
 C 6.355582 0.987453 -3.761993
 C 7.653556 1.038405 -4.016150
 H 3.958518 -0.685575 1.377285
 H 7.107960 -0.422924 0.344600
 H 5.105041 1.374948 -2.070715
 H 5.059937 -0.286030 -2.633333
 H 5.638906 1.267134 -4.530623
 H 8.387780 0.765241 -3.268205
 H 8.018427 1.356653 -4.985065