12
charge = 0
 O 0.630253 -1.261994 -1.951549
 N 1.999180 -1.506042 -2.021664
 C 2.633625 -0.721000 -1.258525
 O 3.962090 -0.751822 -1.144525
 C 4.618122 -1.733117 -1.944125
 C 6.047415 -1.649647 -1.718588
 C 7.234584 -1.609852 -1.557699
 H 0.269731 -1.908744 -2.562933
 H 2.168849 0.038902 -0.634990
 H 4.379843 -1.564083 -2.999661
 H 4.240409 -2.728096 -1.685564
 H 8.288089 -1.569896 -1.410465