13
charge = 0
 C 1.510005 -0.809787 0.454838
 C 2.433603 0.365115 -0.029523
 C 3.113862 0.278206 1.323463
 C 4.038763 0.677165 2.234564
 S 3.857831 -0.288162 3.649334
 C 2.551969 -1.214228 3.014280
 C 2.286943 -0.773739 1.757121
 H 1.606262 -1.731185 -0.122877
 H 0.451739 -0.553063 0.533321
 H 1.909591 1.301442 -0.231254
 H 3.064144 0.123320 -0.887397
 H 4.800513 1.441750 2.202168
 H 2.103085 -1.989733 3.616773