12
charge = 0
 C 1.347029 -0.620503 -0.300415
 C 2.548470 0.368832 -0.057703
 C 3.255335 -0.384271 -1.165758
 N 4.343249 -0.484414 -1.879129
 S 4.075350 -1.750051 -2.911628
 C 2.487599 -2.146614 -2.379385
 C 2.191335 -1.265970 -1.385761
 H 0.429989 -0.141397 -0.647552
 H 1.111500 -1.262918 0.549779
 H 3.012180 0.294180 0.927525
 H 2.329934 1.416794 -0.270494
 H 1.933051 -2.959877 -2.825369