12
charge = 0
 C 2.273054 -0.095573 1.017842
 N 1.728400 0.242717 -0.342395
 C 2.528569 1.419565 -0.330644
 C 2.932143 2.561252 -0.943433
 S 3.907766 3.435092 0.190366
 C 3.753895 2.258671 1.444914
 C 2.991901 1.240711 0.982652
 H 2.932714 -0.966852 1.028348
 H 1.486378 -0.215432 1.764698
 H 1.898599 -0.432021 -1.077317
 H 2.751516 2.963093 -1.927807
 H 4.248875 2.419568 2.390666