11
charge = 0
 C 1.296123 -0.632792 0.232613
 N 2.177307 0.588340 0.119442
 C 3.035998 0.031134 1.110972
 C 4.108769 0.062115 1.943606
 S 3.929930 -1.329066 2.962561
 N 2.515175 -1.904814 2.308830
 C 2.218507 -1.073829 1.356673
 H 1.308700 -1.276908 -0.649484
 H 0.269756 -0.383508 0.504525
 H 2.577427 0.764823 -0.793554
 H 4.946709 0.734706 2.046615