15
charge = 0
 C 0.720707 0.107804 -0.024218
 C 2.206046 0.001115 -0.017670
 C 3.128808 1.003163 -0.015377
 C 4.469776 0.536913 -0.008858
 C 4.571826 -0.821459 -0.006165
 C 5.802954 -1.659276 0.000495
 S 3.000782 -1.526529 -0.011709
 H 0.428727 1.159275 -0.027211
 H 0.273660 -0.362075 0.856147
 H 0.281222 -0.364992 -0.906826
 H 2.852813 2.050715 -0.018301
 H 5.336131 1.187275 -0.006227
 H 6.684278 -1.015758 0.003220
 H 5.861973 -2.305388 -0.879696
 H 5.854406 -2.302492 0.883277