13
charge = 0
 C 0.973560 0.116131 -0.066918
 C 2.461906 0.077159 -0.060991
 C 3.335469 1.123218 -0.057202
 C 4.685965 0.659084 -0.051944
 N 5.768188 1.484664 -0.047473
 N 4.847057 -0.644564 -0.051651
 S 3.369443 -1.370139 -0.057782
 H 0.621286 1.148346 -0.068217
 H 0.558934 -0.382823 0.812354
 H 0.565949 -0.382649 -0.949560
 H 3.039033 2.164394 -0.058107
 H 5.662847 2.478612 -0.046909
 H 6.687172 1.085655 -0.043399