13
charge = 0
 C 0.906263 -0.041925 0.044919
 C 2.393365 -0.031391 0.049581
 C 3.211719 1.050320 0.053447
 C 4.619331 0.732386 0.057409
 N 5.687246 1.424178 0.061579
 S 4.744709 -1.048267 0.055640
 N 3.055072 -1.212503 0.050324
 H 0.519116 0.975487 0.044571
 H 0.517480 -0.558337 0.927032
 H 0.522998 -0.556838 -0.840479
 H 2.858360 2.071331 0.053605
 H 5.468379 2.417166 0.062153
 H 2.618553 -2.115388 0.047390