12
charge = 0
 C 0.978666 0.125023 -0.003561
 C 2.465685 0.093916 0.001571
 C 3.330156 1.125106 0.003594
 C 4.735551 0.736816 0.008799
 O 5.732265 1.428238 0.011550
 N 4.767419 -0.650352 0.010089
 S 3.281370 -1.428782 0.005708
 H 0.628942 1.157263 -0.005591
 H 0.569340 -0.375038 0.877648
 H 0.575407 -0.376451 -0.886762
 H 3.038814 2.165688 0.001641
 H 5.634386 -1.161328 0.013523