13
charge = 0
 C 0.972154 -0.005581 -0.093441
 C 2.464760 0.059269 -0.093222
 C 3.203632 1.208518 -0.096009
 O 2.797248 2.496867 -0.099434
 S 4.897887 0.913230 -0.094814
 C 4.640486 -0.782568 -0.090489
 C 3.317482 -1.083651 -0.090069
 H 0.505884 0.984176 -0.095281
 H 0.594637 -0.529155 0.789317
 H 0.594974 -0.532355 -0.974443
 H 1.835082 2.514187 -0.100305
 H 5.483495 -1.455261 -0.088492
 H 2.942679 -2.099986 -0.087527