15
charge = 0
 C 0.905532 -0.038973 0.119875
 C 2.356282 0.208217 -0.154556
 C 3.122709 -0.542389 -1.183668
 N 2.723154 0.813578 -1.431042
 C 3.642887 1.842370 -1.520071
 N 3.141482 3.019793 -1.095944
 S 5.176431 1.676594 -2.104092
 H 0.789793 -0.821672 0.873872
 H 0.391408 -0.355050 -0.789369
 H 0.413715 0.861693 0.496881
 H 2.947326 0.552315 0.692109
 H 2.612468 -1.287454 -1.785477
 H 4.182758 -0.708885 -1.020693
 H 2.149126 3.118263 -0.962198
 H 3.696118 3.842999 -1.247527