14
charge = 0
 C 0.747612 0.079321 0.018943
 C 2.224932 -0.090906 0.025286
 C 3.192165 0.864839 0.027458
 N 4.487520 0.432882 0.033520
 C 4.551294 -0.860684 0.036172
 C 5.818273 -1.640059 0.042749
 S 2.997525 -1.629178 0.031339
 H 0.503232 1.142969 0.015980
 H 0.281706 -0.370320 0.899707
 H 0.288901 -0.373580 -0.863926
 H 2.988894 1.928928 0.024653
 H 6.652744 -0.939598 0.044931
 H 5.899165 -2.281769 -0.838063
 H 5.891927 -2.278654 0.926453