13
charge = 0
 C 1.063557 -0.094498 0.168080
 C 2.352321 -0.007714 -0.146645
 C 3.201619 1.242603 -0.231520
 N 4.486110 0.701522 -0.609701
 C 4.485115 -0.639326 -0.747081
 S 5.746419 -1.611354 -1.163837
 N 3.210532 -1.045041 -0.468739
 H 0.497341 0.796207 0.401766
 H 0.548316 -1.045550 0.199774
 H 3.241987 1.762649 0.731067
 H 2.811872 1.938537 -0.981471
 H 5.321910 1.233033 -0.765080
 H 2.962600 -2.017478 -0.506422