15
charge = 0
 C 1.028512 0.078077 0.046706
 C 2.539711 0.054298 0.020508
 C 3.205869 1.236654 0.733535
 N 4.432966 0.631842 1.204605
 C 4.302466 -0.713741 1.339917
 S 5.376510 -1.738095 2.060073
 N 3.116755 -1.051157 0.767985
 H 0.652307 0.957642 -0.481302
 H 0.662045 0.102991 1.075007
 H 0.613087 -0.804283 -0.445123
 H 2.888842 0.023174 -1.022258
 H 2.576912 1.583344 1.565320
 H 3.392934 2.075022 0.060887
 H 5.090955 1.107417 1.796899
 H 2.973918 -2.012786 0.510651