12
charge = 0
 C 0.852637 0.006100 0.045153
 C 2.334793 -0.078573 0.050238
 C 3.221444 0.925471 0.052216
 N 4.541376 0.522171 0.057069
 C 4.775644 -0.827351 0.059223
 O 5.846347 -1.376876 0.063364
 S 3.170242 -1.614014 0.054582
 H 0.539051 1.051788 0.043062
 H 0.419582 -0.476046 0.925940
 H 0.425533 -0.477789 -0.837581
 H 2.990521 1.981145 0.050372
 H 5.325030 1.153884 0.059071