12
charge = 0
 C 0.996197 -0.048938 0.085673
 C 2.487928 0.010672 0.086411
 C 3.251225 1.151293 0.088434
 O 2.873774 2.439152 0.090179
 S 4.912638 0.739256 0.088548
 N 4.649229 -0.884154 0.086027
 C 3.358703 -1.106634 0.085134
 H 0.540006 0.945752 0.086942
 H 0.614286 -0.570583 0.967023
 H 0.615056 -0.567979 -0.797545
 H 1.911493 2.485214 0.089828
 H 3.016085 -2.137650 0.083457