13
charge = 0
 C 0.895243 0.121710 0.043478
 C 2.400079 0.112819 -0.003651
 C 3.176623 1.112360 0.861097
 O 4.032729 0.155258 1.539903
 S 3.251616 -1.141397 0.971100
 O 2.421652 -1.702831 1.985739
 O 4.146792 -1.972710 0.240682
 H 0.515260 1.043668 -0.403573
 H 0.536979 0.057449 1.071741
 H 0.481072 -0.717281 -0.517444
 H 2.791529 0.062202 -1.020521
 H 2.548867 1.629742 1.588695
 H 3.794648 1.818620 0.308663