13
charge = 0
 C 0.892958 -0.053609 -0.056784
 C 2.382174 0.008766 -0.052421
 C 3.140534 1.141734 -0.049016
 S 4.814772 0.817254 -0.044526
 C 4.547469 -0.871659 -0.047120
 C 3.211680 -1.150537 -0.051277
 O 2.631017 -2.377237 -0.054272
 H 0.459560 0.946986 -0.057008
 H 0.519478 -0.590491 0.819456
 H 0.524547 -0.588690 -0.936264
 H 2.787456 2.162264 -0.048939
 H 5.375272 -1.564775 -0.045475
 H 3.312872 -3.053805 -0.053062