14
charge = 0
 C 0.890166 0.144947 -0.075147
 C 2.373952 0.031259 -0.072330
 N 3.182007 1.047064 -0.066523
 C 4.496008 0.660207 -0.065153
 C 5.567994 1.700689 -0.058659
 C 4.686952 -0.689218 -0.070070
 S 3.181901 -1.493672 -0.076554
 H 0.624438 1.201370 -0.071763
 H 0.450094 -0.331113 0.804370
 H 0.453941 -0.324504 -0.960115
 H 5.111868 2.689839 -0.056004
 H 6.209807 1.619912 -0.939159
 H 6.205587 1.613247 0.824268
 H 5.617975 -1.235117 -0.070180