14
charge = 0
 C 1.010776 0.083403 -0.037545
 C 2.502931 0.140733 -0.031918
 C 3.225809 1.291830 -0.030839
 S 4.920801 0.979242 -0.023924
 C 4.666484 -0.728159 -0.022397
 N 5.727157 -1.588940 -0.017354
 C 3.330373 -1.020219 -0.027060
 H 0.576596 1.084014 -0.040533
 H 0.633285 -0.446339 0.842079
 H 0.640017 -0.448674 -0.918622
 H 2.868274 2.309756 -0.033697
 H 6.670602 -1.257402 -0.012262
 H 5.569951 -2.577322 -0.014757
 H 2.946165 -2.033115 -0.027062