13
charge = 0
 C 0.898657 0.081491 0.012605
 C 2.390734 0.131544 0.018280
 C 3.119133 1.281210 0.019578
 S 4.810395 0.970119 0.026491
 C 4.539935 -0.733189 0.027682
 O 5.543399 -1.634641 0.032699
 C 3.214390 -1.032516 0.022962
 H 0.469748 1.084319 0.009719
 H 0.519432 -0.446632 0.892100
 H 0.526203 -0.448800 -0.868478
 H 2.762048 2.299609 0.016886
 H 6.395262 -1.190424 0.035600
 H 2.843973 -2.049082 0.022867