12
charge = 0
 C 0.967773 -0.083148 -0.080411
 C 2.446801 0.043256 -0.076351
 C 3.183348 1.164550 -0.075492
 S 4.886925 0.826864 -0.070277
 C 4.591497 -0.931605 -0.069197
 O 5.420624 -1.804149 -0.065874
 N 3.228065 -1.096571 -0.072883
 H 0.507015 0.903817 -0.082789
 H 0.613262 -0.623296 0.802933
 H 0.618278 -0.625213 -0.964578
 H 2.810812 2.176176 -0.077658
 H 2.853500 -2.031670 -0.072913