14
charge = 0
 C 1.006725 -0.046772 0.058397
 C 2.498155 -0.004544 0.061927
 C 3.272314 1.121446 0.067070
 S 4.908882 0.683458 0.069496
 N 4.632857 -0.930660 0.064028
 C 3.338415 -1.159596 0.060382
 C 2.833216 -2.562658 0.055015
 H 0.581942 0.957365 0.060401
 H 0.621598 -0.575548 0.935308
 H 0.625614 -0.570339 -0.823381
 H 2.943828 2.151224 0.069406
 H 3.669824 -3.259374 0.054880
 H 2.215158 -2.754321 -0.827025
 H 2.211061 -2.759579 0.933007