13
charge = 0
 C 0.918863 -0.082225 -0.043898
 C 2.408291 -0.030101 -0.040690
 C 3.191710 1.084992 -0.036372
 S 4.829893 0.646279 -0.034023
 N 4.550278 -0.973052 -0.038505
 C 3.254469 -1.188636 -0.041702
 N 2.766029 -2.459560 -0.045672
 H 0.488219 0.919266 -0.042452
 H 0.534169 -0.607965 0.836876
 H 0.537821 -0.603827 -0.928712
 H 2.866129 2.115752 -0.034568
 H 3.405587 -3.230735 -0.046751
 H 1.782152 -2.637397 -0.048930