15
charge = 0
 C 0.872073 -0.057411 0.131098
 C 2.384116 -0.075955 0.070977
 C 3.096294 1.099311 0.785323
 S 4.329974 -0.052021 1.398798
 O 4.527155 -0.005359 2.818281
 O 5.459274 -0.094912 0.511318
 C 3.071184 -1.215358 0.863984
 H 0.469118 0.812240 -0.393145
 H 0.523081 -0.017944 1.166668
 H 0.449952 -0.952050 -0.332495
 H 2.721244 -0.114936 -0.966593
 H 2.521874 1.499861 1.622205
 H 3.495887 1.899853 0.165990
 H 2.488783 -1.546472 1.725342
 H 3.453612 -2.064046 0.300357