14
charge = 0
 C 1.005419 -0.007528 0.335223
 C 2.418286 0.142129 -0.183158
 C 3.216283 1.294454 0.464410
 S 4.113725 0.049154 1.386087
 O 3.574435 -0.134847 2.703620
 O 5.530152 0.075803 1.218119
 N 3.354629 -0.923026 0.258678
 H 0.388501 0.832605 0.007608
 H 0.993761 -0.044062 1.427110
 H 0.549584 -0.923586 -0.048665
 H 2.426754 0.205450 -1.273370
 H 2.652000 1.974405 1.098448
 H 3.876653 1.830730 -0.213887
 H 2.961607 -1.791690 0.602077