12
charge = 0
 C 0.830371 0.124673 -0.057575
 C 2.311926 -0.001275 -0.061859
 N 3.134199 0.994397 -0.065823
 C 4.438776 0.582471 -0.069163
 C 4.618946 -0.764445 -0.067711
 O 5.742754 -1.506153 -0.070007
 S 3.091574 -1.559926 -0.061906
 H 0.580101 1.185295 -0.058248
 H 0.387822 -0.340091 0.827204
 H 0.382520 -0.342456 -0.938433
 H 5.236797 1.314752 -0.072661
 H 6.503703 -0.916850 -0.073229