12
charge = 0
 C 1.040612 0.066641 -0.035866
 C 2.524605 -0.036439 -0.034091
 N 3.322064 0.993077 -0.029604
 C 4.624083 0.603672 -0.028988
 O 5.584048 1.543695 -0.024557
 C 4.855641 -0.737576 -0.033006
 S 3.347448 -1.545374 -0.037818
 H 0.764451 1.120345 -0.033093
 H 0.605650 -0.412664 0.844286
 H 0.608118 -0.407387 -0.920080
 H 5.135025 2.396514 -0.022427
 H 5.798143 -1.258895 -0.033344