14
charge = 0
 C 0.761744 -0.023101 0.062415
 C 2.250749 0.004083 0.062438
 C 3.110104 1.069454 0.058786
 C 2.741077 2.513302 0.053751
 N 4.443781 0.747397 0.059985
 C 4.615030 -0.533013 0.064475
 S 3.169224 -1.451539 0.067573
 H 0.363003 0.991274 0.059161
 H 0.365712 -0.531631 0.945412
 H 0.365837 -0.537247 -0.817383
 H 1.662375 2.664427 0.052698
 H 3.158970 3.007401 -0.826811
 H 3.158076 3.013340 0.931385
 H 5.584417 -1.014347 0.066216