12
charge = 0
 C 0.963591 -0.082202 -0.093887
 C 2.448463 0.037477 -0.093712
 C 3.164942 1.199945 -0.096683
 O 2.752170 2.483494 -0.100354
 S 4.853532 0.874132 -0.095220
 C 4.482191 -0.808471 -0.090708
 N 3.223585 -1.092650 -0.090352
 H 0.464616 0.890930 -0.095985
 H 0.618240 -0.626073 0.788683
 H 0.618661 -0.629708 -0.974379
 H 1.789617 2.496401 -0.101207
 H 5.273982 -1.545465 -0.088385