13
charge = 0
 C 1.062538 0.305665 0.042906
 C 2.511399 -0.019044 0.036743
 N 3.447244 0.875907 0.032617
 N 4.694252 0.355533 0.027351
 C 4.716375 -0.939175 0.027438
 C 5.966284 -1.740658 0.022213
 S 3.132747 -1.632121 0.034247
 H 0.954445 1.389834 0.043231
 H 0.566990 -0.100209 0.927764
 H 0.559431 -0.100434 -0.837573
 H 6.812946 -1.054905 0.018510
 H 6.025159 -2.381270 -0.860637
 H 6.032691 -2.381034 0.904700