13
charge = 0
 C 1.023540 -0.069940 0.058416
 C 2.512659 -0.019486 0.058751
 N 3.144327 1.131139 0.058127
 S 4.758834 0.886555 0.058701
 C 4.665393 -0.811554 0.059826
 C 3.346020 -1.183800 0.059749
 N 2.840029 -2.457302 0.060502
 H 0.619636 0.941069 0.057629
 H 0.643534 -0.593287 0.942449
 H 0.643972 -0.594486 -0.825095
 H 5.539626 -1.445577 0.060477
 H 3.441785 -3.255914 0.061097
 H 1.851854 -2.611116 0.060243