13
charge = 0
 C 1.187574 0.182273 0.033917
 C 2.647293 -0.096831 0.031542
 N 3.572083 0.823430 0.028623
 C 4.804981 0.237496 0.027083
 C 6.037195 1.075818 0.023660
 N 4.878798 -1.071293 0.028630
 S 3.348937 -1.659588 0.032236
 H 1.034251 1.260484 0.032787
 H 0.705356 -0.242976 0.916971
 H 0.702042 -0.245298 -0.846194
 H 5.769118 2.130494 0.023155
 H 6.643795 0.858319 -0.857484
 H 6.647496 0.860072 0.902673