13
charge = 0
 C 0.913753 0.057648 0.111832
 C 2.395841 -0.108791 0.027931
 O 3.122425 0.868842 0.774544
 C 4.127584 0.082741 1.391600
 S 3.190733 -1.430081 1.018507
 O 2.368189 -1.830051 2.123105
 O 3.909559 -2.404514 0.253342
 H 0.632519 1.029073 -0.301398
 H 0.578813 -0.002366 1.147556
 H 0.414943 -0.718656 -0.471727
 H 2.768737 -0.185057 -1.000219
 H 4.244799 0.314732 2.450112
 H 5.081394 0.093481 0.856115