13
charge = 0
 C 0.884707 0.036816 0.065337
 C 2.372912 0.041509 0.065195
 C 3.236606 1.110363 0.061847
 N 2.905530 2.435804 0.057867
 N 4.569348 0.803117 0.062745
 C 4.741289 -0.481050 0.066685
 S 3.307655 -1.403801 0.069581
 H 0.498932 1.058567 0.062943
 H 0.470194 -0.457657 0.948971
 H 0.469995 -0.461921 -0.815810
 H 1.956181 2.746157 0.055943
 H 3.645005 3.110121 0.055116
 H 5.714336 -0.954013 0.068099