12
charge = 0
 C 0.780393 -0.045713 -0.023288
 C 2.268712 -0.072231 -0.023315
 C 3.155983 0.971997 -0.026687
 O 2.860948 2.287397 -0.030822
 N 4.475654 0.658866 -0.025796
 C 4.627871 -0.627119 -0.021753
 S 3.177451 -1.531872 -0.018794
 H 0.406477 0.981935 -0.025641
 H 0.359809 -0.532168 0.860892
 H 0.359653 -0.536339 -0.905092
 H 1.906442 2.398732 -0.031418
 H 5.592105 -1.117405 -0.020284