12
charge = 0
 C 0.785085 0.019403 -0.002964
 C 2.273660 0.023297 -0.007892
 C 3.128696 1.095639 -0.006696
 O 2.814397 2.412986 -0.000711
 C 4.482052 0.675346 -0.012769
 N 4.682634 -0.617834 -0.018275
 S 3.238108 -1.388093 -0.016391
 H 0.384368 1.037268 0.001844
 H 0.383880 -0.485320 0.879315
 H 0.378031 -0.479260 -0.886008
 H 1.858886 2.517766 0.002972
 H 5.327712 1.354002 -0.013025