10
charge = 0
 C 0.982580 -0.014606 0.016642
 C 2.185237 -0.004564 0.019534
 C 3.592145 -0.017366 0.022870
 C 4.469354 1.043253 0.024145
 C 5.798331 0.579542 0.027639
 N 5.967584 -0.724416 0.029020
 S 4.514052 -1.461243 0.026120
 H -0.081950 -0.017950 0.014037
 H 4.165460 2.080142 0.022647
 H 6.675217 1.217409 0.029237