13
charge = 0
 C 1.819782 -0.717034 1.009036
 C 2.356843 0.099154 0.104773
 C 3.001917 -0.295752 -1.138600
 C 3.532352 0.613175 -2.019360
 S 4.221308 -0.132083 -3.384406
 C 3.815743 -1.689022 -2.809950
 C 3.175022 -1.630201 -1.613300
 H 1.359783 -0.326513 1.908143
 H 1.818412 -1.794532 0.888390
 H 2.324446 1.170474 0.287482
 H 3.544669 1.688462 -1.918775
 H 4.071378 -2.565762 -3.385389
 H 2.835346 -2.510086 -1.083553