11
charge = 0
 C 1.010030 -0.043245 -0.063029
 C 2.212479 -0.017467 -0.060275
 C 3.630007 0.000494 -0.057114
 C 4.384598 1.148518 -0.056636
 S 6.047301 0.807694 -0.052538
 C 5.774388 -0.877072 -0.051373
 C 4.446752 -1.169009 -0.054048
 H -0.053903 -0.063449 -0.065512
 H 4.024761 2.165603 -0.058520
 H 6.606525 -1.564208 -0.048777
 H 4.045272 -2.172969 -0.053889