12
charge = 0
 C 2.617145 -1.226865 0.343971
 C 2.232828 0.000510 0.006045
 C 2.859607 0.838209 -1.009370
 N 2.354080 2.040737 -1.226250
 S 3.202915 2.799046 -2.393923
 C 4.293961 1.527503 -2.655975
 C 3.983036 0.501980 -1.815871
 H 2.093907 -1.782307 1.112276
 H 3.459544 -1.721521 -0.126689
 H 1.384023 0.462438 0.500449
 H 5.088842 1.578223 -3.385789
 H 4.519712 -0.435053 -1.772973