14
charge = 0
 C 0.969832 0.217087 -0.252358
 C 2.456237 -0.080316 -0.085528
 C 2.872623 -0.312555 1.328047
 C 3.355968 -1.454979 1.894262
 N 3.655170 -1.405414 3.223844
 C 3.406286 -0.226461 3.695381
 S 2.791194 0.895119 2.548718
 H 0.720110 0.354963 -1.306598
 H 0.685983 1.127223 0.281041
 H 0.362419 -0.601382 0.139439
 H 3.042942 0.738159 -0.515832
 H 2.720324 -0.976753 -0.654077
 H 3.512369 -2.378082 1.349422
 H 3.561944 0.061492 4.726838