10
charge = 0
 C 0.872965 -0.005149 -0.073007
 C 2.074684 0.031088 -0.071317
 C 3.489825 0.053310 -0.069284
 C 4.277707 1.182024 -0.068268
 S 5.899880 0.720148 -0.065895
 N 5.614326 -0.892165 -0.066132
 C 4.323236 -1.101521 -0.067961
 H -0.190975 -0.034900 -0.074498
 H 3.951903 2.211473 -0.068844
 H 3.948958 -2.118918 -0.068392