11
charge = 0
 C 2.033477 -0.928917 0.937155
 C 2.472387 0.002752 0.095558
 C 3.142694 -0.253112 -1.170751
 N 3.537422 0.757980 -1.929137
 S 4.237155 0.139621 -3.247177
 N 4.068199 -1.439805 -2.910073
 C 3.457342 -1.516591 -1.752745
 H 1.543103 -0.654231 1.862554
 H 2.143444 -1.989570 0.740946
 H 2.342491 1.054450 0.329646
 H 3.237397 -2.486868 -1.325787