13
charge = 0
 C 0.835174 0.057512 -0.123953
 C 2.337300 0.083179 0.139291
 C 2.726079 -0.738892 1.324758
 N 2.677334 -2.057915 1.293286
 S 3.138640 -2.598781 2.746954
 N 3.418668 -1.179172 3.473670
 C 3.153983 -0.245486 2.586103
 H 0.588077 0.650345 -1.006944
 H 0.278891 0.464255 0.723738
 H 0.493924 -0.965526 -0.290961
 H 2.674799 1.111165 0.296954
 H 2.869733 -0.297262 -0.736642
 H 3.272609 0.799788 2.846255