14
charge = 0
 C 0.935953 -0.092841 0.221389
 C 2.424680 -0.051453 -0.102776
 C 2.876886 -1.241732 -0.883670
 C 3.378774 -1.229329 -2.152354
 S 3.755908 -2.815144 -2.654625
 C 3.217083 -3.397897 -1.135381
 N 2.791076 -2.487247 -0.319962
 H 0.647295 0.765789 0.831618
 H 0.690680 -1.002923 0.771314
 H 0.335576 -0.078518 -0.691356
 H 2.997728 -0.014371 0.829566
 H 2.667572 0.856319 -0.660980
 H 3.541445 -0.379716 -2.797318
 H 3.245444 -4.454059 -0.901094