11
charge = 0
 C 0.961831 0.180685 0.183969
 C 2.287507 0.107514 0.255886
 C 3.037459 -1.132615 0.378377
 C 4.403464 -1.254282 0.455734
 S 4.786872 -2.882265 0.585892
 N 3.167480 -3.347601 0.536137
 N 2.402593 -2.343051 0.429011
 H 0.463284 1.137604 0.093517
 H 0.348275 -0.711696 0.213887
 H 2.883521 1.014507 0.224100
 H 5.137833 -0.463910 0.438899