12
charge = 0
 C 0.751590 0.032189 -0.114552
 C 2.024287 -0.018144 0.268643
 C 2.747343 -1.199768 0.698473
 N 4.000679 -1.164901 1.060446
 C 4.445585 -2.397245 1.417843
 C 3.533089 -3.403797 1.334780
 S 2.044761 -2.781879 0.782923
 H 0.299417 0.967196 -0.419422
 H 0.118507 -0.848915 -0.138457
 H 2.633471 0.880447 0.282326
 H 5.470793 -2.519900 1.741732
 H 3.658970 -4.450383 1.564265