13
charge = 0
 C 1.033023 0.117636 0.049243
 C 2.540311 -0.104633 0.100463
 C 3.035767 -0.315971 1.491559
 N 3.570572 -1.455784 1.861741
 S 3.985261 -1.333190 3.442877
 C 3.414940 0.265306 3.545956
 N 2.928025 0.684900 2.416005
 H 0.708503 0.304163 -0.976343
 H 0.747976 0.975460 0.660603
 H 0.495868 -0.758180 0.420056
 H 3.053003 0.769990 -0.312033
 H 2.827363 -0.970221 -0.497933
 H 3.455778 0.864124 4.447007