11
charge = 0
 C 0.798517 -0.048838 0.229365
 C 2.120203 -0.167368 0.149906
 C 2.870099 -1.404925 0.232044
 N 4.171508 -1.432047 0.144196
 N 4.691500 -2.668910 0.242353
 C 3.783669 -3.578069 0.404357
 S 2.182180 -2.975558 0.450861
 H 0.322944 0.920900 0.157166
 H 0.147081 -0.905415 0.368002
 H 2.750451 0.705269 0.011011
 H 4.011148 -4.630421 0.502839