13
charge = 0
 C 0.967630 0.057620 -0.193834
 C 2.478335 -0.097617 -0.053212
 C 2.925250 -0.260236 1.358603
 N 3.397100 -1.369336 1.839615
 N 3.720994 -1.298347 3.149417
 C 3.491937 -0.130378 3.654165
 S 2.845999 0.998723 2.539806
 H 0.691481 0.146236 -1.246230
 H 0.607301 0.949473 0.323928
 H 0.448630 -0.807320 0.223479
 H 2.984346 0.763950 -0.499157
 H 2.821331 -0.986568 -0.586387
 H 3.690065 0.117101 4.687817