15
charge = 0
 C 0.988961 0.158870 -0.066456
 C 2.474938 0.080124 0.027154
 C 3.244601 0.678731 0.924280
 S 3.299441 -0.844256 -1.252819
 C 2.904890 -2.531697 -0.881276
 O 2.663220 -0.511412 -2.499720
 O 4.720389 -0.692157 -1.101037
 H 0.596024 0.802882 0.721221
 H 0.523134 -0.825425 0.037346
 H 0.688758 0.556686 -1.037930
 H 2.810184 1.295866 1.703910
 H 4.322279 0.577966 0.886652
 H 1.825995 -2.676075 -0.912184
 H 3.317800 -2.792239 0.091939
 H 3.380467 -3.120964 -1.666571