17
charge = 0
 C 0.976208 -0.087926 0.119503
 C 2.493416 -0.012599 0.031687
 C 2.969966 0.738743 -1.197999
 S 3.074702 0.759073 1.551184
 C 4.844044 0.672570 1.465869
 O 2.701176 2.149495 1.528005
 O 2.661010 -0.074389 2.649586
 H 0.591636 -0.609797 -0.759247
 H 0.543222 0.914108 0.140110
 H 0.655400 -0.624507 1.012242
 H 2.916313 -1.022128 0.064436
 H 2.629986 1.775513 -1.167011
 H 2.555100 0.268833 -2.092745
 H 4.056704 0.732651 -1.298277
 H 5.214129 1.294056 0.653116
 H 5.156585 -0.365243 1.356937
 H 5.190380 1.065257 2.422493