13
charge = 0
 C 0.965109 0.034511 -0.038681
 C 2.409861 0.058163 -0.026129
 C 3.613504 0.083438 -0.023076
 S 5.322144 0.160722 -0.073776
 C 5.780804 -0.857414 1.293047
 O 5.757948 -0.476628 -1.279611
 O 5.712500 1.507950 0.213937
 H 0.563313 1.043114 0.082134
 H 0.584432 -0.585745 0.776176
 H 0.595738 -0.374546 -0.981842
 H 5.412078 -1.868101 1.125812
 H 5.379100 -0.428189 2.209461
 H 6.871968 -0.847785 1.313458