14
charge = 0
 C 1.155215 0.181205 -0.229529
 C 2.578360 -0.133078 0.080611
 C 3.242887 0.200013 1.177303
 S 3.431036 -1.104862 -1.130828
 N 3.445479 -0.106294 -2.443716
 O 4.779134 -1.311784 -0.694532
 O 2.579228 -2.204200 -1.479230
 H 1.077678 0.749866 -1.159542
 H 0.715926 0.768472 0.577467
 H 0.577551 -0.736941 -0.356438
 H 2.756121 0.765730 1.964446
 H 4.276941 -0.089201 1.313988
 H 4.358332 0.297030 -2.605044
 H 3.067113 -0.572557 -3.257156