16
charge = 0
 C 1.041701 0.103350 -0.064526
 C 2.556362 -0.033671 -0.070405
 C 3.023969 -1.420370 -0.468954
 S 3.225726 1.212307 -1.170240
 N 4.858578 1.056856 -0.969970
 O 2.917194 0.836064 -2.520352
 O 2.853654 2.497637 -0.652812
 H 0.619992 -0.605423 0.651338
 H 0.630496 -0.122821 -1.050431
 H 0.732695 1.109176 0.220017
 H 2.963218 0.243148 0.907208
 H 2.665070 -1.674319 -1.467961
 H 2.623268 -2.153015 0.235346
 H 4.111890 -1.496579 -0.455424
 H 5.309906 0.778296 -1.830517
 H 5.256460 1.898055 -0.574908