15
charge = 0
 C 1.062268 -0.026984 -0.105711
 C 2.581171 -0.077722 -0.029258
 C 3.090650 -0.603066 1.299952
 S 3.170623 -1.077442 -1.389121
 O 4.754333 -0.890894 -1.266865
 O 2.892827 -2.460531 -1.136319
 O 2.776602 -0.459927 -2.610085
 H 0.687968 0.635555 0.677301
 H 0.633187 -1.018453 0.053197
 H 0.723293 0.350512 -1.070265
 H 3.000602 0.910477 -0.241859
 H 2.741744 -1.622935 1.471650
 H 2.708298 0.028261 2.104920
 H 4.179962 -0.588112 1.352844
 H 5.126171 -1.731226 -0.968382