17
charge = 0
 C 3.487348 1.209596 0.030869
 C 3.523444 -0.257289 -0.369261
 N 3.397921 -1.174393 0.749976
 C 2.054100 -1.616213 1.043743
 C 4.431698 -1.482715 1.565060
 N 5.637897 -0.947080 1.238394
 S 4.317110 -2.434866 2.934415
 H 3.554772 1.846559 -0.854221
 H 4.312593 1.459791 0.699549
 H 2.553955 1.445140 0.545949
 H 4.427121 -0.483098 -0.944794
 H 2.695138 -0.475700 -1.047074
 H 1.410591 -0.765750 1.292810
 H 2.087375 -2.295041 1.892722
 H 1.633839 -2.131499 0.175247
 H 5.830474 -0.584116 0.321628
 H 6.410923 -1.308627 1.767896