16
charge = 0
 C 1.449158 0.216857 -0.769696
 C 2.958649 0.245836 -0.662184
 N 3.395221 -0.628708 0.422051
 S 4.995699 -0.744310 0.781619
 C 5.190947 0.408958 2.104130
 O 5.187006 -2.064334 1.306288
 O 5.781282 -0.263421 -0.316883
 H 1.116349 0.879564 -1.570500
 H 0.980719 0.537182 0.162966
 H 1.089766 -0.789171 -1.003854
 H 3.298455 1.259578 -0.436127
 H 3.421293 -0.038471 -1.612646
 H 2.994098 -1.557939 0.410291
 H 4.579732 0.087973 2.945077
 H 4.897787 1.400564 1.761075
 H 6.248229 0.405320 2.369293