13
charge = 0
 C 3.005385 -0.342478 1.292121
 C 2.827770 -0.830879 -0.102998
 O 2.441560 -1.902224 -0.459139
 S 3.282338 0.436327 -1.375304
 C 2.977390 -0.402015 -2.898264
 O 2.348425 1.522461 -1.237032
 O 4.694953 0.676296 -1.241127
 H 2.392399 0.549952 1.442035
 H 4.046695 -0.044976 1.439806
 H 2.725061 -1.124714 1.995145
 H 1.925140 -0.672322 -2.958401
 H 3.615257 -1.281233 -2.961465
 H 3.236027 0.319705 -3.674176