15
charge = 0
 C 1.233876 0.259819 -0.183674
 C 2.701655 0.062322 0.078802
 O 3.230975 -0.740338 -0.999835
 S 4.781735 -1.070223 -0.916992
 C 4.891560 -2.012471 -2.396199
 O 5.530032 0.140108 -1.057459
 O 5.025713 -1.912753 0.212232
 H 0.800494 0.864806 0.615640
 H 0.710290 -0.697144 -0.212813
 H 1.072856 0.776221 -1.131394
 H 2.876825 -0.464912 1.019885
 H 3.240505 1.012852 0.098622
 H 4.611439 -1.383665 -3.238940
 H 4.242125 -2.881525 -2.311962
 H 5.933309 -2.321206 -2.479504