17
charge = 0
 C 1.135403 0.201990 0.205057
 C 2.630936 0.073219 -0.017010
 S 3.160069 -1.594278 0.335248
 O 2.959133 -1.841278 1.740148
 O 2.553726 -2.471142 -0.633539
 C 4.916800 -1.552749 0.024146
 C 5.523104 -2.919468 0.282968
 H 0.817480 1.223096 -0.011952
 H 0.876328 -0.028297 1.239041
 H 0.587065 -0.476984 -0.448863
 H 3.199931 0.729465 0.645515
 H 2.908825 0.278110 -1.053432
 H 5.334273 -0.789309 0.684618
 H 5.044159 -1.239830 -1.014720
 H 5.365552 -3.223065 1.318486
 H 6.596946 -2.888212 0.091361
 H 5.077270 -3.670670 -0.369872