13
charge = 0
 C 1.178772 -0.471914 0.405744
 C 2.264154 0.191797 -0.423942
 S 2.339683 1.923028 -0.035458
 O 1.139003 2.577898 -0.481665
 O 2.801639 2.102079 1.315139
 C 3.680244 2.553845 -1.109210
 O 4.298567 1.872510 -1.860918
 H 1.138322 -1.534252 0.161148
 H 0.202167 -0.033978 0.196394
 H 1.384493 -0.372625 1.472123
 H 2.071492 0.125007 -1.496307
 H 3.256323 -0.213685 -0.217226
 H 3.828432 3.641697 -0.959422