12
charge = 0
 C 0.788793 -0.086531 0.014828
 N 2.226266 0.039533 0.016806
 S 3.002690 1.543227 0.019455
 C 4.665740 0.762291 0.021080
 O 5.679982 1.407846 0.023180
 C 4.417057 -0.649916 0.019306
 C 3.098203 -0.979169 0.017076
 H 0.344997 0.907592 0.014650
 H 0.441922 -0.615545 0.906412
 H 0.444373 -0.614757 -0.878168
 H 5.230159 -1.359750 0.019756
 H 2.697837 -1.986132 0.015510