15
charge = 0
 C 1.063122 -0.081311 0.124407
 N 2.436118 -0.029003 -0.282113
 C 3.236626 1.160453 -0.079810
 C 4.575827 0.746642 -0.681978
 N 4.511182 -0.690206 -0.516499
 C 3.220429 -1.123737 -0.447175
 S 2.739211 -2.702599 -0.546121
 H 0.481597 0.670178 -0.415249
 H 0.957895 0.098872 1.201638
 H 0.680459 -1.075524 -0.104892
 H 3.329149 1.387444 0.992077
 H 2.796477 2.027164 -0.577257
 H 5.425435 1.181160 -0.153834
 H 4.635393 1.030686 -1.740407
 H 5.183679 -1.311209 -0.931697