14
charge = 0
 C 0.930058 0.035461 -0.006411
 N 2.340892 0.024756 0.237979
 C 3.072853 -1.125792 0.374202
 C 4.427464 -1.182246 0.609486
 S 4.984786 -2.793030 0.719134
 C 3.429551 -3.419846 0.454590
 C 2.504747 -2.432236 0.286285
 H 0.589958 1.068818 -0.073651
 H 0.364408 -0.448203 0.800188
 H 0.667248 -0.462312 -0.948559
 H 2.821328 0.899336 0.314350
 H 5.113923 -0.357077 0.721811
 H 3.264417 -4.486102 0.434585
 H 1.456357 -2.626458 0.106109