13
charge = 0
 C 0.948581 -0.075631 0.266144
 N 2.370828 -0.038684 0.095145
 C 3.153113 -1.147581 0.026619
 N 4.457783 -1.024701 -0.131893
 S 5.144760 -2.511888 -0.180551
 C 3.697444 -3.366997 0.011307
 C 2.662374 -2.486649 0.115203
 H 0.569810 0.945629 0.288552
 H 0.657100 -0.558955 1.206350
 H 0.446210 -0.598478 -0.556532
 H 2.844150 0.842334 0.019106
 H 3.655674 -4.446190 0.040445
 H 1.626865 -2.766008 0.245086