13
charge = 0
 C 1.735523 -0.399929 1.033950
 N 2.629709 -0.030484 -0.023887
 C 3.224310 -0.944997 -0.849122
 C 4.092487 -0.679857 -1.885656
 S 4.556461 -2.142373 -2.608451
 N 3.674848 -3.097847 -1.628099
 C 3.029457 -2.354641 -0.758609
 H 1.397621 0.502096 1.543337
 H 2.219778 -1.042149 1.780128
 H 0.846970 -0.924311 0.660825
 H 2.830575 0.939217 -0.167817
 H 4.452185 0.280030 -2.225633
 H 2.393066 -2.843145 -0.029776