13
charge = 0
 C 2.038700 -1.230984 -0.127440
 N 2.224214 0.174238 0.112777
 C 2.952549 0.654415 1.158488
 C 3.182828 1.977289 1.464577
 S 4.151207 2.072601 2.866563
 C 4.184756 0.373095 2.950476
 N 3.529191 -0.242563 2.013088
 H 1.422041 -1.350072 -1.018431
 H 1.536459 -1.725266 0.709659
 H 2.989897 -1.745723 -0.293532
 H 1.803988 0.834645 -0.510401
 H 2.840786 2.860771 0.950189
 H 4.720703 -0.139556 3.738087