16
charge = 0
 C 1.361172 0.263124 0.102697
 N 2.130998 -0.389584 -0.936454
 C 2.478540 -1.773106 -0.684260
 S 3.163018 0.520301 -1.825736
 C 4.548375 0.875079 -0.778107
 O 3.641582 -0.307507 -2.890484
 O 2.505532 1.763695 -2.089580
 H 1.894812 0.291713 1.063167
 H 0.430366 -0.290053 0.247548
 H 1.115081 1.276459 -0.206834
 H 3.092884 -1.891952 0.219360
 H 3.011057 -2.178226 -1.541885
 H 1.557996 -2.345042 -0.546865
 H 5.028300 -0.058344 -0.484850
 H 4.209009 1.435549 0.092697
 H 5.241388 1.480804 -1.361826