15
charge = 0
 C 2.472872 -1.213301 -1.165845
 N 3.395788 -0.976734 -0.082776
 C 3.697073 0.260766 0.351272
 S 3.021793 1.642905 -0.272510
 N 4.611455 0.340733 1.364605
 C 5.117344 -0.680915 2.143999
 C 6.120808 -0.550278 3.008696
 H 2.343773 -2.290369 -1.276078
 H 2.835659 -0.788581 -2.105900
 H 1.509439 -0.754873 -0.943017
 H 4.020179 -1.727965 0.156151
 H 4.871468 1.289261 1.585367
 H 4.602597 -1.630860 2.049578
 H 6.649982 0.386514 3.140071
 H 6.421960 -1.389924 3.618096