12
charge = 0
 C 1.946843 -0.528279 1.163372
 O 2.655110 0.117059 0.122018
 C 3.178188 -0.670797 -0.815106
 C 3.897087 -0.244849 -1.902243
 C 4.289121 -1.353909 -2.673647
 N 3.928474 -2.547405 -2.258776
 S 3.067674 -2.389492 -0.868107
 H 1.593324 0.255221 1.829996
 H 2.603363 -1.210265 1.713661
 H 1.092150 -1.084114 0.764004
 H 4.118107 0.790625 -2.116034
 H 4.869449 -1.286685 -3.588058