12
charge = 0
 C 2.007596 -0.467507 0.943645
 O 2.745171 0.142834 -0.092110
 C 3.207175 -0.671590 -1.060407
 C 3.938421 -0.205168 -2.123776
 S 4.333947 -1.514482 -3.116483
 N 3.590332 -2.648650 -2.211350
 C 3.038832 -2.078046 -1.162935
 H 1.719271 0.330278 1.625641
 H 2.612965 -1.202621 1.484926
 H 1.105640 -0.954677 0.557649
 H 4.229427 0.814503 -2.323985
 H 2.502112 -2.700161 -0.457215