12
charge = 0
 C 1.903423 -0.517835 1.340206
 O 2.544793 -0.035089 0.176988
 C 3.027125 -0.939648 -0.669128
 N 3.628799 -0.598281 -1.757315
 C 4.024640 -1.708790 -2.444288
 C 3.728456 -2.908203 -1.885996
 S 2.899423 -2.656727 -0.402479
 H 1.582563 0.359774 1.896825
 H 2.593780 -1.107436 1.952245
 H 1.030952 -1.127075 1.082425
 H 4.546386 -1.584830 -3.384238
 H 3.942169 -3.901061 -2.248156