15
charge = 0
 C 3.553000 -0.272474 -1.274894
 O 3.277610 -0.773083 0.023613
 C 3.524418 0.115035 1.051930
 S 5.231552 0.082040 1.648694
 C 5.436718 -1.587252 2.199400
 O 6.113381 0.286800 0.529355
 O 5.285509 0.962259 2.784774
 H 3.261346 -1.055053 -1.973822
 H 4.612629 -0.040580 -1.399453
 H 2.955576 0.625511 -1.472074
 H 2.897888 -0.142290 1.909426
 H 3.354988 1.166665 0.784171
 H 5.205898 -2.260422 1.374980
 H 4.790800 -1.768723 3.057119
 H 6.484674 -1.680054 2.485491