13
charge = 0
 C 1.311541 -0.577202 -0.145723
 O 2.718047 -0.311988 -0.244778
 S 3.118198 0.933632 -1.144950
 O 2.615671 0.721492 -2.466993
 O 2.794207 2.141979 -0.454870
 C 4.845906 0.673062 -1.138167
 C 5.655774 1.578287 -0.619248
 H 1.227200 -1.457561 0.486909
 H 0.895205 -0.779208 -1.133375
 H 0.799185 0.267203 0.318261
 H 5.165218 -0.233885 -1.637276
 H 5.259838 2.468644 -0.144614
 H 6.731200 1.451234 -0.662088