11
charge = 0
 C 2.541383 -0.789866 -1.108209
 O 2.419465 -0.134136 0.162626
 S 2.846592 -0.931490 1.445761
 O 2.457250 -0.130568 2.546379
 O 2.450403 -2.292148 1.321509
 C 4.551321 -0.885289 1.320817
 C 5.749309 -0.872259 1.257898
 H 2.125535 -0.091547 -1.830411
 H 1.979447 -1.722650 -1.106462
 H 3.592936 -0.978364 -1.334950
 H 6.814249 -0.858775 1.210442