13
charge = 0
 C 1.041817 0.324143 0.071429
 S 2.793208 0.085660 -0.053345
 O 3.154428 -1.019030 0.786345
 O 3.147712 0.097868 -1.442613
 C 3.427070 1.603731 0.705451
 C 4.869327 1.614726 0.706475
 C 6.067519 1.613613 0.702152
 H 0.597765 -0.566951 -0.373538
 H 0.748460 1.207713 -0.493859
 H 0.753359 0.399887 1.118980
 H 3.026204 1.636813 1.722051
 H 3.021235 2.436941 0.125517
 H 7.131996 1.607588 0.694755