13
charge = 0
 C 0.904680 0.126067 0.208850
 S 2.664919 0.265509 0.282053
 O 3.036612 1.574625 -0.169648
 O 3.107567 -0.216706 1.561222
 C 3.236810 -0.911256 -0.947581
 C 2.954304 -2.325144 -0.513464
 O 2.051790 -2.974234 -0.964299
 H 0.530875 0.782662 0.995428
 H 0.607217 -0.903636 0.402163
 H 0.555149 0.465149 -0.764991
 H 4.311051 -0.714263 -0.998776
 H 2.757747 -0.681499 -1.899310
 H 3.621389 -2.724175 0.272653