12
charge = 0
 N 0.837111 0.072238 0.079401
 C 2.207311 0.018747 0.085646
 C 3.110433 1.036329 0.088137
 C 4.467369 0.580841 0.094924
 C 4.564941 -0.767645 0.097432
 O 5.641974 -1.590562 0.103525
 S 3.005077 -1.524323 0.091596
 H 0.373752 0.959107 0.076080
 H 0.278171 -0.756394 0.078272
 H 2.827404 2.080838 0.085261
 H 5.325416 1.242017 0.097757
 H 6.435740 -1.047903 0.106260