13
charge = 0
 N 0.925439 -0.188554 -0.146352
 C 2.313227 -0.055663 -0.059529
 C 3.046715 1.094385 -0.085599
 S 4.725622 0.777473 -0.016577
 C 4.467141 -0.911833 0.041551
 C 3.139130 -1.222099 0.003763
 N 2.552775 -2.487622 0.079353
 H 0.432814 0.688187 -0.070388
 H 0.564419 -0.851550 0.527875
 H 2.682109 2.109625 -0.123301
 H 5.303645 -1.592790 0.081939
 H 3.216922 -3.242832 0.003959
 H 1.812331 -2.604438 -0.600773