12
charge = 0
 N 1.025259 0.021365 -0.077319
 C 2.388479 0.130419 -0.072210
 C 3.147228 1.268354 -0.068161
 S 4.826437 0.925115 -0.062576
 C 4.546839 -0.760535 -0.065536
 C 3.214494 -1.035580 -0.070616
 O 2.603694 -2.252032 -0.074189
 H 0.436719 0.829128 -0.077672
 H 0.605887 -0.887541 -0.079069
 H 2.801674 2.290368 -0.068221
 H 5.368838 -1.460258 -0.063406
 H 3.267530 -2.945693 -0.072726