13
charge = 0
 N 0.860490 0.168424 0.052444
 C 2.223247 0.080820 0.059103
 C 3.134039 1.099609 0.063557
 C 4.484409 0.633754 0.069979
 N 5.545928 1.502499 0.075002
 C 4.572593 -0.729384 0.070307
 S 3.003360 -1.454705 0.062709
 H 0.413880 1.063888 0.051311
 H 0.286211 -0.650272 0.050622
 H 2.858384 2.147182 0.062288
 H 5.395556 2.490497 0.075324
 H 6.487411 1.165920 0.080317
 H 5.453702 -1.350221 0.074447