12
charge = 0
 N 0.904028 -0.053124 0.030208
 C 2.271721 0.023354 0.036624
 C 3.004373 1.178784 0.038638
 S 4.697363 0.849147 0.046735
 C 4.414509 -0.847121 0.047485
 O 5.410621 -1.756542 0.053088
 C 3.090253 -1.147771 0.041768
 H 0.340828 0.773233 0.028224
 H 0.443767 -0.940468 0.031000
 H 2.654539 2.198552 0.035819
 H 6.263976 -1.314945 0.056799
 H 2.715422 -2.162588 0.041222