10
charge = 0
 N 0.866498 0.109127 0.074694
 C 2.018225 0.051998 0.079738
 C 3.426679 -0.021889 0.085014
 C 4.317200 1.023679 0.086945
 C 5.655863 0.586196 0.092489
 C 5.758781 -0.776532 0.094594
 S 4.239834 -1.535510 0.089855
 H 4.003967 2.058629 0.084470
 H 6.509751 1.249659 0.094832
 H 6.657891 -1.374366 0.098699