13
charge = 0
 N 3.030695 -0.214328 -1.311824
 C 2.788803 -0.184433 0.120525
 C 3.084708 1.166726 0.695340
 C 3.080734 2.348335 0.003281
 S 3.445233 3.615175 1.064404
 N 3.608456 2.674635 2.393397
 C 3.396905 1.424421 2.053523
 H 2.725296 -1.094416 -1.706047
 H 4.021175 -0.124240 -1.504342
 H 3.356337 -0.936832 0.689614
 H 1.730008 -0.416660 0.282638
 H 2.880568 2.487254 -1.048781
 H 3.473772 0.660462 2.821370