15
charge = 0
 N 2.469045 -1.479160 0.042084
 C 2.485253 -0.138563 -0.137067
 S 1.932681 0.927337 1.018333
 N 2.975645 0.279383 -1.306990
 C 3.141860 1.620252 -1.830165
 C 3.731014 0.992057 -3.116012
 C 3.516730 -0.396239 -2.476837
 H 2.106389 -1.824923 0.910458
 H 2.800539 -2.125584 -0.651263
 H 3.824113 2.234017 -1.237245
 H 2.198507 2.159243 -1.945466
 H 4.772187 1.242931 -3.308340
 H 3.146121 1.167765 -4.016566
 H 4.430965 -0.966779 -2.277963
 H 2.796050 -1.042527 -2.990471