15
charge = 0
 N 2.273058 -0.809425 0.533684
 C 2.010511 0.418184 1.042408
 S 0.455754 0.936298 1.331076
 N 3.079351 1.186147 1.330814
 C 4.470178 0.835248 1.150292
 C 5.342861 1.694619 2.005138
 C 6.292505 2.487472 1.532942
 H 1.468368 -1.330649 0.234218
 H 3.153581 -1.018357 0.095002
 H 2.852346 2.110894 1.656138
 H 4.779255 0.926381 0.099698
 H 4.606115 -0.211574 1.449597
 H 5.156525 1.640669 3.075310
 H 6.490604 2.562978 0.468233
 H 6.909798 3.085704 2.192460