13
charge = 0
 N 3.903451 -1.553844 -0.202391
 C 2.858756 -0.700569 -0.079011
 S 1.298575 -1.235779 0.119980
 N 3.162480 0.612937 -0.100753
 C 4.500675 1.161416 -0.135003
 C 4.476005 2.604676 0.019920
 C 4.444856 3.795873 0.147665
 H 3.659853 -2.523935 -0.295678
 H 4.789787 -1.258971 -0.575367
 H 2.386626 1.237767 0.036383
 H 4.995842 0.924144 -1.087749
 H 5.112119 0.726696 0.667298
 H 4.419674 4.854179 0.262615