14
charge = 0
 N 1.139592 -0.109010 0.274270
 S 2.778815 0.018355 0.412393
 O 3.185941 1.218238 -0.257905
 O 3.114936 -0.228683 1.781802
 C 3.347503 -1.364122 -0.567976
 C 4.833214 -1.368714 -0.673915
 C 5.601398 -2.323103 -0.170933
 H 0.746659 0.676162 -0.226861
 H 0.706697 -0.257293 1.175653
 H 2.868350 -1.239990 -1.542837
 H 2.962068 -2.265655 -0.089483
 H 5.275947 -0.524906 -1.194569
 H 5.182477 -3.169539 0.363484
 H 6.679222 -2.289730 -0.275111