12
charge = 0
 N 1.146954 0.035311 0.211001
 S 2.770486 0.138938 -0.048528
 O 3.089480 -0.682293 -1.173770
 O 3.139866 1.517821 0.019324
 C 3.396132 -0.676422 1.428673
 C 4.838895 -0.718679 1.446232
 C 6.036655 -0.751563 1.458044
 H 0.692164 -0.533894 -0.489794
 H 0.726118 0.948594 0.314683
 H 2.960418 -1.678365 1.430453
 H 2.995849 -0.116696 2.277339
 H 7.100784 -0.778450 1.462242