10
charge = 0
 O 1.241818 -0.153821 0.757968
 C 2.086813 0.096865 -0.062032
 C 2.755891 -0.906840 -0.889047
 C 3.724927 -0.694993 -1.840410
 C 4.115365 -1.918339 -2.417365
 N 3.507779 -2.992680 -1.960146
 S 2.431792 -2.578546 -0.807711
 H 2.421672 1.137851 -0.247429
 H 4.124566 0.275867 -2.102045
 H 4.863678 -2.032864 -3.193183