12
charge = 0
 O 1.084868 0.098280 0.405858
 C 2.321796 -0.251614 -0.168357
 C 2.802848 0.892206 -0.995159
 C 2.193381 2.098015 -1.201113
 C 2.979324 2.907910 -2.052001
 N 4.107170 2.396065 -2.482869
 S 4.269331 0.885126 -1.865951
 H 0.776138 -0.640717 0.934605
 H 2.226763 -1.144056 -0.802932
 H 3.068326 -0.480052 0.605401
 H 1.244318 2.374158 -0.765662
 H 2.713837 3.911389 -2.367511