11
charge = 0
 O 2.484335 -1.212403 0.227282
 C 2.093472 -0.093270 0.007642
 C 2.794486 1.124058 0.416876
 C 2.316786 2.382307 0.147898
 S 3.350008 3.583115 0.748267
 C 4.445473 2.423473 1.373258
 C 4.027103 1.155581 1.126456
 H 1.142457 0.080723 -0.538903
 H 1.407344 2.642383 -0.374299
 H 5.337740 2.746018 1.888331
 H 4.556806 0.262127 1.427092