12
charge = 0
 O 1.651893 -1.110701 -0.309254
 C 2.196665 0.148930 0.014051
 C 2.823166 0.737161 -1.211988
 N 3.393977 1.918828 -1.126879
 S 3.997779 2.336438 -2.586628
 C 3.502627 0.925528 -3.378684
 C 2.856297 0.119303 -2.484972
 H 1.250265 -1.479009 0.479986
 H 2.964291 0.068876 0.794855
 H 1.426378 0.840712 0.379274
 H 3.694962 0.745537 -4.426324
 H 2.428980 -0.847892 -2.702347