10
charge = 0
 O 1.354633 -0.155845 0.820314
 C 2.208440 0.047787 -0.006219
 C 2.842852 -0.979719 -0.816256
 C 3.814612 -0.805681 -1.768833
 N 4.247945 -1.927465 -2.391247
 C 3.612644 -2.963451 -1.920533
 S 2.457816 -2.647197 -0.702360
 H 2.578830 1.072618 -0.213314
 H 4.237721 0.154698 -2.037754
 H 3.789396 -3.974344 -2.265608