13
charge = 0
 O 2.688661 -1.088032 0.732161
 C 2.362915 0.161487 0.227568
 S 3.017294 0.382943 -1.435002
 O 2.704052 -0.843300 -2.127989
 O 2.559254 1.651227 -1.930858
 C 4.762683 0.437527 -1.219673
 C 5.437740 1.524990 -1.548749
 H 2.390383 -1.747381 0.093071
 H 2.782373 0.933050 0.873947
 H 1.284792 0.332986 0.102819
 H 5.204387 -0.481872 -0.853761
 H 4.921421 2.403106 -1.920832
 H 6.518255 1.558760 -1.467193