11
charge = 0
 O 2.774032 -0.838351 0.971341
 C 2.472809 -0.077271 -0.140370
 S 2.957129 1.641079 0.066535
 O 2.550267 2.374520 -1.091742
 O 2.527632 2.026441 1.380749
 C 4.671094 1.564959 0.082280
 C 5.869951 1.511574 0.087019
 H 2.381522 -0.413889 1.744112
 H 1.398952 0.003363 -0.364234
 H 2.997021 -0.476580 -1.009271
 H 6.935392 1.471566 0.092779