13
charge = 0
 O 1.047205 0.097143 -0.148650
 S 2.484905 0.084098 -0.171228
 O 3.165497 0.215821 -1.429386
 C 3.103990 -1.341934 0.736485
 C 3.443408 -0.850124 2.140890
 C 3.532122 0.648176 2.097269
 C 3.096228 1.243138 0.998950
 H 3.987002 -1.683370 0.197364
 H 2.332497 -2.109476 0.704578
 H 4.383127 -1.283518 2.492040
 H 2.676102 -1.144618 2.864111
 H 3.914130 1.195559 2.952220
 H 3.043207 2.300696 0.781275