12
charge = 0
 O 1.074365 0.051548 -0.238175
 S 2.500634 -0.031705 -0.250584
 O 3.187832 -0.053121 -1.507771
 N 3.028282 -1.333342 0.650572
 C 3.436944 -0.912127 1.984136
 C 3.532298 0.586449 1.986655
 C 3.118590 1.167658 0.873967
 H 3.767856 -1.787724 0.131437
 H 4.393965 -1.371977 2.243574
 H 2.708214 -1.238372 2.735162
 H 3.871517 1.120419 2.866598
 H 3.041884 2.220195 0.643430