13
charge = 0
 O 3.513876 1.067188 0.433357
 S 2.414991 -0.038861 0.096266
 O 1.444283 0.057603 1.129691
 O 2.064170 0.109241 -1.284035
 C 3.307690 -1.528079 0.293039
 C 2.850989 -2.717506 -0.495556
 C 4.138076 -2.046362 -0.840006
 H 3.923472 1.350845 -0.394381
 H 3.641200 -1.665255 1.313959
 H 2.021060 -2.571108 -1.174632
 H 2.872169 -3.671342 0.014895
 H 4.155287 -1.462515 -1.751586
 H 5.070746 -2.528060 -0.575919