13
charge = 0
 S 1.606942 0.359314 0.971172
 C 2.957087 -0.103420 0.174537
 N 3.164978 -1.290717 -0.425696
 C 4.455680 -1.441523 -1.053243
 C 5.017711 -0.048859 -0.879967
 C 4.261494 1.093681 -1.417376
 N 4.109833 0.708004 -0.005824
 H 2.457757 -2.004807 -0.396601
 H 4.366820 -1.751254 -2.099612
 H 5.077031 -2.176449 -0.529984
 H 6.074740 0.055761 -0.667201
 H 3.418480 0.893178 -2.071738
 H 4.758558 2.043772 -1.571667