13
charge = 0
 S 0.765618 -0.123879 0.016415
 C 2.425599 -0.105503 0.009957
 N 3.142140 1.030970 -0.000861
 C 4.589859 1.174201 -0.007702
 C 5.249004 -0.163679 -0.000302
 C 4.530211 -1.280241 0.010491
 N 3.146740 -1.258953 0.015421
 H 2.576310 1.862844 -0.004657
 H 4.903250 1.761532 0.866340
 H 4.896297 1.748382 -0.892887
 H 6.328831 -0.209100 -0.003940
 H 4.978387 -2.265208 0.016036
 H 2.606734 -2.105667 0.023600